<?xml version="1.0" ?>
<!-- Generated by MOSAIC scenario-convert 18.0 -->
<routes>
	<vType id="default" length="7.5" maxSpeed="50" minGap="2.0" carFollowModel="Krauss" accel="0.80" decel="4.5" sigma="0.5" tau="1"/>
	<route id="STEE" edges="SimcoeTauntonWestApproach RosslandMaryEastDepart"/><!-- (Extreme ends)-->
	<route id="STER" edges="SimcoeTauntonWestApproach SimcoeTauntonSouthDepart"/><!--  (Right-Turn)-->
	<route id="STEL" edges="SimcoeTauntonWestApproach MaryTauntonWestDepart"/><!--(Left-Turn)-->
	<route id="STES" edges="SimcoeTauntonWestApproach RosslandSimcoeEastDepart"/><!--  (Straight-Through)-->
	
	
	<route id="TSE" edges="TauntonSimcoeSouthApproach MaryRosslandNorthDepart"/><!-- (Extreme ends)-->
	<route id="TSR" edges="TauntonSimcoeSouthApproach SimcoeRosslandSouthDepart"/><!--  (Right-Turn)-->
	<route id="TSL" edges="TauntonSimcoeSouthApproach SimcoeTauntonWestDepart"/><!--(Left-Turn)-->
	<route id="TSS" edges="TauntonSimcoeSouthApproach MaryTauntonNorthDepart"/><!--  (Straight-Through)-->
	
	
	<route id="RSE" edges="RosslandSimcoeSouthApproach MaryTauntonNorthDepart"/><!-- (Extreme ends)-->
	<route id="RSR" edges="RosslandSimcoeSouthApproach RosslandSimcoeEastDepart"/><!--  (Right-Turn)-->
	<route id="RSL" edges="RosslandSimcoeSouthApproach SimcoeTauntonWestDepart"/><!--(Left-Turn)-->
	<route id="RSS" edges="RosslandSimcoeSouthApproach MaryRosslandNorthDepart"/><!--  (Straight-Through)-->
	
	<route id="SRE" edges="SimcoeRosslandEastApproach MaryTauntonWestDepart"/><!-- (Extreme ends)-->
	<route id="SRR" edges="SimcoeRosslandEastApproach RosslandMaryEastDepart"/><!--  (Right-Turn)-->
	<route id="SRL" edges="SimcoeRosslandEastApproach SimcoeRosslandSouthDepart"/><!--(Left-Turn)-->
	<route id="SRS" edges="SimcoeRosslandEastApproach SimcoeTauntonWestDepart"/><!--  (Straight-Through)-->
	
	<route id="MRE" edges="MaryRosslandEastApproach SimcoeTauntonWestDepart"/><!-- (Extreme ends)-->
	<route id="MRR" edges="MaryRosslandEastApproach MaryRosslandNorthDepart"/><!--  (Right-Turn)-->
	<route id="MRL" edges="MaryRosslandEastApproach RosslandSimcoeEastDepart"/><!--(Left-Turn)-->
	<route id="MRS" edges="MaryRosslandEastApproach MaryTauntonWestDepart"/><!--  (Straight-Through)-->
	
	<route id="RME" edges="RosslandMaryNorthApproach SimcoeTauntonWestDepart"/><!-- (Extreme ends)-->
	<route id="RMR" edges="RosslandMaryNorthApproach MaryTauntonNorthDepart"/><!--  (Right-Turn)-->
	<route id="RML" edges="RosslandMaryNorthApproach RosslandMaryEastDepart"/><!--(Left-Turn)-->
	<route id="RMS" edges="RosslandMaryNorthApproach SimcoeRosslandSouthDepart"/><!--  (Straight-Through)-->
	
	
	<route id="TME" edges="TauntonMaryNorthApproach SimcoeRosslandSouthDepart"/><!-- (Extreme ends)-->
	<route id="TMR" edges="TauntonMaryNorthApproach MaryTauntonWestDepart"/><!--  (Right-Turn)-->
	<route id="TML" edges="TauntonMaryNorthApproach MaryRosslandNorthDepart"/><!--(Left-Turn)-->
	<route id="TMS" edges="TauntonMaryNorthApproach SimcoeTauntonSouthDepart"/><!--  (Straight-Through)-->
	
	
	<route id="MTE" edges="MaryTauntonWestApproach RosslandSimcoeEastDepart"/><!-- (Extreme ends)-->
	<route id="MTR" edges="MaryTauntonWestApproach SimcoeTauntonWestDepart"/><!--  (Right-Turn)-->
	<route id="MTL" edges="MaryTauntonWestApproach MaryTauntonNorthDepart"/><!--(Left-Turn)-->
	<route id="MTS" edges="MaryTauntonWestApproach SimcoeTauntonSouthDepart"/><!--  (Straight-Through)-->
	
</routes>
