<?xml version="1.0" encoding="UTF-8"?>

<!-- generated on 2024-06-12 09:19:47 by Eclipse SUMO netedit Version 1.20.0
<configuration xmlns:xsi="http://www.w3.org/2001/XMLSchema-instance" xsi:noNamespaceSchemaLocation="http://sumo.dlr.de/xsd/neteditConfiguration.xsd">

    <input>
        <sumo-net-file value="/home/iotlab/CAV/mosaic/scenarios/multiintersection/sumo/newmultiintersection.net.xml"/>
    </input>

    <output>
        <output-file value="/home/iotlab/CAV/mosaic/scenarios/multiintersection/sumo/newmultiintersection.net.xml"/>
    </output>

    <processing>
        <geometry.min-radius.fix.railways value="false"/>
        <geometry.max-grade.fix value="false"/>
        <offset.disable-normalization value="true"/>
        <lefthand value="0"/>
    </processing>

    <junctions>
        <no-turnarounds value="true"/>
        <junctions.corner-detail value="5"/>
        <junctions.limit-turn-speed value="5.50"/>
        <rectangular-lane-cut value="0"/>
    </junctions>

    <pedestrian>
        <walkingareas value="0"/>
    </pedestrian>

</configuration>
-->

<net version="1.20" junctionCornerDetail="5" limitTurnSpeed="5.50" xmlns:xsi="http://www.w3.org/2001/XMLSchema-instance" xsi:noNamespaceSchemaLocation="http://sumo.dlr.de/xsd/net_file.xsd">

    <location netOffset="-563984.16,-5933566.87" convBoundary="-829.80,-907.97,1819.86,1311.74" origBoundary="9.970000,53.550000,9.990000,53.570000" projParameter="+proj=utm +zone=32 +ellps=WGS84 +datum=WGS84 +units=m +no_defs"/>

    <edge id=":J13_0" function="internal">
        <lane id=":J13_0_0" index="0" speed="13.89" length="0.47" shape="102.63,-193.17 103.26,-193.14"/>
        <lane id=":J13_0_1" index="1" speed="13.89" length="0.47" shape="102.55,-189.97 103.02,-189.95"/>
        <lane id=":J13_0_2" index="2" speed="13.89" length="0.47" shape="102.47,-186.77 102.78,-186.76"/>
    </edge>
    <edge id=":J14_0" function="internal">
        <lane id=":J14_0_0" index="0" speed="13.89" length="0.14" shape="181.13,656.81 181.36,656.81"/>
        <lane id=":J14_0_1" index="1" speed="13.89" length="0.14" shape="181.15,660.01 181.29,660.01"/>
        <lane id=":J14_0_2" index="2" speed="13.89" length="0.14" shape="181.18,663.21 181.22,663.21"/>
    </edge>
    <edge id=":J15_0" function="internal">
        <lane id=":J15_0_0" index="0" speed="13.89" length="0.12" shape="-28.54,-58.87 -28.54,-58.68"/>
        <lane id=":J15_0_1" index="1" speed="13.89" length="0.12" shape="-31.74,-58.78 -31.74,-58.67"/>
        <lane id=":J15_0_2" index="2" speed="13.89" length="0.12" shape="-34.94,-58.69 -34.94,-58.65"/>
    </edge>
    <edge id=":J16_0" function="internal">
        <lane id=":J16_0_0" index="0" speed="13.89" length="0.30" shape="1103.72,65.61 1103.72,65.90"/>
        <lane id=":J16_0_1" index="1" speed="13.89" length="0.30" shape="1100.52,65.54 1100.52,65.84"/>
        <lane id=":J16_0_2" index="2" speed="13.89" length="0.30" shape="1097.32,65.47 1097.32,65.78"/>
    </edge>
    <edge id=":J17_0" function="internal">
        <lane id=":J17_0_0" index="0" speed="13.89" length="0.11" shape="901.83,-112.79 901.64,-112.80"/>
        <lane id=":J17_0_1" index="1" speed="13.89" length="0.11" shape="901.99,-115.99 901.87,-115.99"/>
        <lane id=":J17_0_2" index="2" speed="13.89" length="0.11" shape="902.14,-119.18 902.10,-119.18"/>
    </edge>
    <edge id=":J18_0" function="internal">
        <lane id=":J18_0_0" index="0" speed="13.89" length="0.32" shape="1069.99,524.53 1069.99,523.99"/>
        <lane id=":J18_0_1" index="1" speed="13.89" length="0.32" shape="1073.19,524.42 1073.19,524.10"/>
        <lane id=":J18_0_2" index="2" speed="13.89" length="0.32" shape="1076.39,524.31 1076.39,524.21"/>
    </edge>
    <edge id=":J19_0" function="internal">
        <lane id=":J19_0_0" index="0" speed="13.89" length="0.11" shape="874.96,692.58 874.78,692.58"/>
        <lane id=":J19_0_1" index="1" speed="13.89" length="0.11" shape="874.95,689.38 874.84,689.38"/>
        <lane id=":J19_0_2" index="2" speed="13.89" length="0.11" shape="874.94,686.18 874.91,686.18"/>
    </edge>
    <edge id=":J20_0" function="internal">
        <lane id=":J20_0_0" index="0" speed="13.89" length="0.10" shape="-49.55,30.33 -49.55,30.18"/>
        <lane id=":J20_0_1" index="1" speed="13.89" length="0.10" shape="-46.35,30.29 -46.35,30.19"/>
        <lane id=":J20_0_2" index="2" speed="13.89" length="0.10" shape="-43.15,30.24 -43.15,30.21"/>
    </edge>
    <edge id=":MaryRosslandJuction_0" function="internal">
        <lane id=":MaryRosslandJuction_0_0" index="0" speed="6.79" length="9.93" shape="1075.37,698.44 1075.00,695.63 1073.89,693.62 1072.05,692.42 1069.47,692.03"/>
    </edge>
    <edge id=":MaryRosslandJuction_1" function="internal">
        <lane id=":MaryRosslandJuction_1_0" index="0" speed="13.89" length="28.37" shape="1075.37,698.44 1074.89,670.13"/>
        <lane id=":MaryRosslandJuction_1_1" index="1" speed="13.89" length="28.37" shape="1078.57,698.44 1078.09,670.02"/>
    </edge>
    <edge id=":MaryRosslandJuction_3" function="internal">
        <lane id=":MaryRosslandJuction_3_0" index="0" speed="10.25" length="12.40" shape="1081.77,698.43 1082.77,691.44 1085.61,686.92"/>
    </edge>
    <edge id=":MaryRosslandJuction_16" function="internal">
        <lane id=":MaryRosslandJuction_16_0" index="0" speed="10.25" length="13.08" shape="1085.61,686.92 1085.79,686.63 1090.83,684.02 1097.88,683.59"/>
    </edge>
    <edge id=":MaryRosslandJuction_4" function="internal">
        <lane id=":MaryRosslandJuction_4_0" index="0" speed="6.33" length="9.04" shape="1097.09,693.16 1094.59,693.31 1092.80,694.24 1091.73,695.94 1091.37,698.43"/>
    </edge>
    <edge id=":MaryRosslandJuction_5" function="internal">
        <lane id=":MaryRosslandJuction_5_0" index="0" speed="13.89" length="27.78" shape="1097.09,693.16 1069.47,692.03"/>
        <lane id=":MaryRosslandJuction_5_1" index="1" speed="13.89" length="27.78" shape="1097.35,689.97 1069.46,688.83"/>
    </edge>
    <edge id=":MaryRosslandJuction_7" function="internal">
        <lane id=":MaryRosslandJuction_7_0" index="0" speed="11.18" length="12.40" shape="1097.62,686.78 1090.67,685.24 1086.26,682.33"/>
    </edge>
    <edge id=":MaryRosslandJuction_17" function="internal">
        <lane id=":MaryRosslandJuction_17_0" index="0" speed="11.18" length="13.74" shape="1086.26,682.33 1085.63,681.91 1082.50,676.80 1081.29,669.92"/>
    </edge>
    <edge id=":MaryRosslandJuction_8" function="internal">
        <lane id=":MaryRosslandJuction_8_0" index="0" speed="7.42" length="11.48" shape="1091.65,669.58 1092.02,672.71 1093.27,675.02 1095.40,676.52 1098.42,677.22"/>
    </edge>
    <edge id=":MaryRosslandJuction_9" function="internal">
        <lane id=":MaryRosslandJuction_9_0" index="0" speed="13.89" length="28.80" shape="1091.65,669.58 1091.37,698.43"/>
        <lane id=":MaryRosslandJuction_9_1" index="1" speed="13.89" length="28.80" shape="1088.45,669.68 1088.17,698.43"/>
    </edge>
    <edge id=":MaryRosslandJuction_11" function="internal">
        <lane id=":MaryRosslandJuction_11_0" index="0" speed="10.63" length="12.92" shape="1085.24,669.79 1084.14,676.70 1081.14,681.65 1081.03,681.72"/>
    </edge>
    <edge id=":MaryRosslandJuction_18" function="internal">
        <lane id=":MaryRosslandJuction_18_0" index="0" speed="10.63" length="12.46" shape="1081.03,681.72 1076.24,684.62 1069.46,685.63"/>
    </edge>
    <edge id=":MaryRosslandJuction_12" function="internal">
        <lane id=":MaryRosslandJuction_12_0" index="0" speed="6.38" length="9.01" shape="1069.43,675.69 1071.89,675.39 1073.62,674.36 1074.62,672.61 1074.89,670.13"/>
    </edge>
    <edge id=":MaryRosslandJuction_13" function="internal">
        <lane id=":MaryRosslandJuction_13_0" index="0" speed="13.89" length="28.89" shape="1069.43,675.69 1098.42,677.22"/>
        <lane id=":MaryRosslandJuction_13_1" index="1" speed="13.89" length="28.89" shape="1069.44,678.89 1098.15,680.41"/>
    </edge>
    <edge id=":MaryRosslandJuction_15" function="internal">
        <lane id=":MaryRosslandJuction_15_0" index="0" speed="10.66" length="12.88" shape="1069.45,682.09 1076.23,683.24 1081.08,686.34 1081.20,686.55"/>
    </edge>
    <edge id=":MaryRosslandJuction_19" function="internal">
        <lane id=":MaryRosslandJuction_19_0" index="0" speed="10.66" length="12.70" shape="1081.20,686.55 1084.00,691.41 1084.97,698.43"/>
    </edge>
    <edge id=":MaryTauntonJunction_0" function="internal">
        <lane id=":MaryTauntonJunction_0_0" index="0" speed="6.72" length="9.61" shape="-40.49,680.56 -40.90,677.89 -42.02,676.00 -43.85,674.87 -46.39,674.50"/>
    </edge>
    <edge id=":MaryTauntonJunction_1" function="internal">
        <lane id=":MaryTauntonJunction_1_0" index="0" speed="13.89" length="27.70" shape="-40.49,680.56 -40.95,652.86"/>
        <lane id=":MaryTauntonJunction_1_1" index="1" speed="13.89" length="27.70" shape="-37.29,680.50 -37.75,652.81"/>
    </edge>
    <edge id=":MaryTauntonJunction_3" function="internal">
        <lane id=":MaryTauntonJunction_3_0" index="0" speed="10.39" length="12.38" shape="-34.09,680.43 -33.26,673.60 -30.55,668.82"/>
    </edge>
    <edge id=":MaryTauntonJunction_16" function="internal">
        <lane id=":MaryTauntonJunction_16_0" index="0" speed="10.39" length="12.49" shape="-30.55,668.82 -30.48,668.70 -25.74,665.74 -19.05,664.72"/>
    </edge>
    <edge id=":MaryTauntonJunction_4" function="internal">
        <lane id=":MaryTauntonJunction_4_0" index="0" speed="6.41" length="9.00" shape="-18.98,674.70 -21.43,675.00 -23.17,676.03 -24.19,677.78 -24.49,680.25"/>
    </edge>
    <edge id=":MaryTauntonJunction_5" function="internal">
        <lane id=":MaryTauntonJunction_5_0" index="0" speed="13.89" length="27.41" shape="-18.98,674.70 -46.39,674.50"/>
        <lane id=":MaryTauntonJunction_5_1" index="1" speed="13.89" length="27.41" shape="-19.00,671.50 -46.41,671.30"/>
    </edge>
    <edge id=":MaryTauntonJunction_7" function="internal">
        <lane id=":MaryTauntonJunction_7_0" index="0" speed="10.56" length="12.45" shape="-19.03,668.30 -25.74,667.21 -30.56,664.26"/>
    </edge>
    <edge id=":MaryTauntonJunction_17" function="internal">
        <lane id=":MaryTauntonJunction_17_0" index="0" speed="10.56" length="12.40" shape="-30.56,664.26 -33.50,659.45 -34.55,652.77"/>
    </edge>
    <edge id=":MaryTauntonJunction_8" function="internal">
        <lane id=":MaryTauntonJunction_8_0" index="0" speed="6.56" length="9.21" shape="-24.83,652.63 -24.46,655.14 -23.38,656.92 -21.60,657.98 -19.10,658.32"/>
    </edge>
    <edge id=":MaryTauntonJunction_9" function="internal">
        <lane id=":MaryTauntonJunction_9_0" index="0" speed="13.89" length="27.63" shape="-24.83,652.63 -24.49,680.25"/>
        <lane id=":MaryTauntonJunction_9_1" index="1" speed="13.89" length="27.63" shape="-28.03,652.68 -27.69,680.31"/>
    </edge>
    <edge id=":MaryTauntonJunction_11" function="internal">
        <lane id=":MaryTauntonJunction_11_0" index="0" speed="10.39" length="12.11" shape="-31.23,652.72 -32.15,659.42 -34.88,664.02"/>
    </edge>
    <edge id=":MaryTauntonJunction_18" function="internal">
        <lane id=":MaryTauntonJunction_18_0" index="0" speed="10.39" length="12.54" shape="-34.88,664.02 -34.99,664.21 -39.75,667.11 -46.43,668.10"/>
    </edge>
    <edge id=":MaryTauntonJunction_12" function="internal">
        <lane id=":MaryTauntonJunction_12_0" index="0" speed="6.49" length="9.03" shape="-46.48,658.50 -44.03,658.14 -42.29,657.07 -41.27,655.31 -40.95,652.86"/>
    </edge>
    <edge id=":MaryTauntonJunction_13" function="internal">
        <lane id=":MaryTauntonJunction_13_0" index="0" speed="13.89" length="27.39" shape="-46.48,658.50 -19.10,658.32"/>
        <lane id=":MaryTauntonJunction_13_1" index="1" speed="13.89" length="27.39" shape="-46.46,661.70 -19.08,661.52"/>
    </edge>
    <edge id=":MaryTauntonJunction_15" function="internal">
        <lane id=":MaryTauntonJunction_15_0" index="0" speed="10.50" length="12.26" shape="-46.45,664.90 -39.75,665.83 -35.03,668.66"/>
    </edge>
    <edge id=":MaryTauntonJunction_19" function="internal">
        <lane id=":MaryTauntonJunction_19_0" index="0" speed="10.50" length="12.69" shape="-35.03,668.66 -34.93,668.72 -31.97,673.57 -30.89,680.37"/>
    </edge>
    <edge id=":SimcoeRosslandJunction_0" function="internal">
        <lane id=":SimcoeRosslandJunction_0_0" index="0" speed="6.51" length="9.10" shape="1113.09,-102.79 1110.60,-102.52 1108.79,-101.52 1107.69,-99.79 1107.28,-97.35"/>
    </edge>
    <edge id=":SimcoeRosslandJunction_1" function="internal">
        <lane id=":SimcoeRosslandJunction_1_0" index="0" speed="13.89" length="27.50" shape="1113.09,-102.79 1085.59,-103.87"/>
        <lane id=":SimcoeRosslandJunction_1_1" index="1" speed="13.89" length="27.50" shape="1113.19,-105.99 1085.74,-107.07"/>
    </edge>
    <edge id=":SimcoeRosslandJunction_3" function="internal">
        <lane id=":SimcoeRosslandJunction_3_0" index="0" speed="10.36" length="12.36" shape="1113.29,-109.19 1106.60,-110.36 1101.93,-113.40"/>
    </edge>
    <edge id=":SimcoeRosslandJunction_16" function="internal">
        <lane id=":SimcoeRosslandJunction_16_0" index="0" speed="10.36" length="12.43" shape="1101.93,-113.40 1099.27,-118.33 1098.63,-125.13"/>
    </edge>
    <edge id=":SimcoeRosslandJunction_4" function="internal">
        <lane id=":SimcoeRosslandJunction_4_0" index="0" speed="6.50" length="9.12" shape="1108.22,-124.68 1108.45,-122.16 1109.42,-120.34 1111.13,-119.22 1113.57,-118.78"/>
    </edge>
    <edge id=":SimcoeRosslandJunction_5" function="internal">
        <lane id=":SimcoeRosslandJunction_5_0" index="0" speed="13.89" length="27.39" shape="1108.22,-124.68 1107.28,-97.35"/>
        <lane id=":SimcoeRosslandJunction_5_1" index="1" speed="13.89" length="27.39" shape="1105.02,-124.83 1104.08,-97.42"/>
    </edge>
    <edge id=":SimcoeRosslandJunction_7" function="internal">
        <lane id=":SimcoeRosslandJunction_7_0" index="0" speed="10.40" length="12.17" shape="1101.82,-124.98 1100.56,-118.26 1097.63,-113.80"/>
    </edge>
    <edge id=":SimcoeRosslandJunction_17" function="internal">
        <lane id=":SimcoeRosslandJunction_17_0" index="0" speed="10.40" length="12.57" shape="1097.63,-113.80 1097.48,-113.57 1092.60,-110.91 1085.90,-110.26"/>
    </edge>
    <edge id=":SimcoeRosslandJunction_8" function="internal">
        <lane id=":SimcoeRosslandJunction_8_0" index="0" speed="6.44" length="9.00" shape="1086.38,-120.20 1088.84,-120.37 1090.64,-121.30 1091.77,-122.98 1092.23,-125.43"/>
    </edge>
    <edge id=":SimcoeRosslandJunction_9" function="internal">
        <lane id=":SimcoeRosslandJunction_9_0" index="0" speed="13.89" length="27.26" shape="1086.38,-120.20 1113.57,-118.78"/>
        <lane id=":SimcoeRosslandJunction_9_1" index="1" speed="13.89" length="27.26" shape="1086.23,-117.00 1113.48,-115.59"/>
    </edge>
    <edge id=":SimcoeRosslandJunction_11" function="internal">
        <lane id=":SimcoeRosslandJunction_11_0" index="0" speed="10.64" length="12.21" shape="1086.07,-113.81 1092.67,-112.37 1097.17,-109.28"/>
    </edge>
    <edge id=":SimcoeRosslandJunction_18" function="internal">
        <lane id=":SimcoeRosslandJunction_18_0" index="0" speed="10.64" length="12.64" shape="1097.17,-109.28 1097.34,-109.17 1100.08,-104.21 1100.88,-97.49"/>
    </edge>
    <edge id=":SimcoeRosslandJunction_12" function="internal">
        <lane id=":SimcoeRosslandJunction_12_0" index="0" speed="6.66" length="9.42" shape="1091.12,-97.70 1090.85,-100.30 1089.83,-102.19 1088.08,-103.38 1085.59,-103.87"/>
    </edge>
    <edge id=":SimcoeRosslandJunction_13" function="internal">
        <lane id=":SimcoeRosslandJunction_13_0" index="0" speed="13.89" length="27.70" shape="1091.12,-97.70 1092.23,-125.43"/>
        <lane id=":SimcoeRosslandJunction_13_1" index="1" speed="13.89" length="27.70" shape="1094.32,-97.63 1095.43,-125.28"/>
    </edge>
    <edge id=":SimcoeRosslandJunction_15" function="internal">
        <lane id=":SimcoeRosslandJunction_15_0" index="0" speed="10.42" length="12.35" shape="1097.52,-97.56 1098.70,-104.22 1101.74,-108.91"/>
    </edge>
    <edge id=":SimcoeRosslandJunction_19" function="internal">
        <lane id=":SimcoeRosslandJunction_19_0" index="0" speed="10.42" length="12.39" shape="1101.74,-108.91 1106.64,-111.63 1113.38,-112.39"/>
    </edge>
    <edge id=":SimcoeTauntonJunction_0" function="internal">
        <lane id=":SimcoeTauntonJunction_0_0" index="0" speed="6.28" length="8.98" shape="-26.41,-179.71 -28.89,-179.53 -30.63,-178.58 -31.64,-176.85 -31.93,-174.36"/>
    </edge>
    <edge id=":SimcoeTauntonJunction_1" function="internal">
        <lane id=":SimcoeTauntonJunction_1_0" index="0" speed="13.89" length="27.66" shape="-26.41,-179.71 -54.01,-180.70"/>
        <lane id=":SimcoeTauntonJunction_1_1" index="1" speed="13.89" length="27.66" shape="-26.33,-182.92 -54.02,-183.90"/>
    </edge>
    <edge id=":SimcoeTauntonJunction_3" function="internal">
        <lane id=":SimcoeTauntonJunction_3_0" index="0" speed="10.83" length="25.36" shape="-26.25,-186.12 -33.12,-187.56 -38.03,-190.74 -40.99,-195.66 -41.98,-202.33"/>
    </edge>
    <edge id=":SimcoeTauntonJunction_4" function="internal">
        <lane id=":SimcoeTauntonJunction_4_0" index="0" speed="6.85" length="9.92" shape="-32.38,-202.36 -31.98,-199.80 -30.78,-197.96 -28.78,-196.82 -25.98,-196.38"/>
    </edge>
    <edge id=":SimcoeTauntonJunction_5" function="internal">
        <lane id=":SimcoeTauntonJunction_5_0" index="0" speed="13.89" length="28.05" shape="-32.38,-202.36 -31.93,-174.36"/>
        <lane id=":SimcoeTauntonJunction_5_1" index="1" speed="13.89" length="28.05" shape="-35.58,-202.35 -35.12,-174.26"/>
    </edge>
    <edge id=":SimcoeTauntonJunction_7" function="internal">
        <lane id=":SimcoeTauntonJunction_7_0" index="0" speed="10.38" length="12.11" shape="-38.78,-202.34 -39.72,-195.69 -42.49,-191.07"/>
    </edge>
    <edge id=":SimcoeTauntonJunction_16" function="internal">
        <lane id=":SimcoeTauntonJunction_16_0" index="0" speed="10.38" length="12.47" shape="-42.49,-191.07 -42.58,-190.93 -47.34,-188.07 -54.03,-187.10"/>
    </edge>
    <edge id=":SimcoeTauntonJunction_8" function="internal">
        <lane id=":SimcoeTauntonJunction_8_0" index="0" speed="6.53" length="9.10" shape="-54.06,-196.70 -51.57,-197.06 -49.80,-198.11 -48.73,-199.86 -48.38,-202.32"/>
    </edge>
    <edge id=":SimcoeTauntonJunction_9" function="internal">
        <lane id=":SimcoeTauntonJunction_9_0" index="0" speed="13.89" length="28.03" shape="-54.06,-196.70 -25.98,-196.38"/>
        <lane id=":SimcoeTauntonJunction_9_1" index="1" speed="13.89" length="28.03" shape="-54.05,-193.50 -26.07,-193.18"/>
    </edge>
    <edge id=":SimcoeTauntonJunction_11" function="internal">
        <lane id=":SimcoeTauntonJunction_11_0" index="0" speed="10.67" length="25.52" shape="-54.04,-190.30 -47.34,-189.31 -42.49,-186.29 -39.48,-181.24 -38.32,-174.17"/>
    </edge>
    <edge id=":SimcoeTauntonJunction_12" function="internal">
        <lane id=":SimcoeTauntonJunction_12_0" index="0" speed="6.80" length="10.03" shape="-48.43,-173.88 -48.77,-176.87 -49.81,-179.00 -51.55,-180.28 -54.01,-180.70"/>
    </edge>
    <edge id=":SimcoeTauntonJunction_13" function="internal">
        <lane id=":SimcoeTauntonJunction_13_0" index="0" speed="13.89" length="28.39" shape="-48.43,-173.88 -48.38,-202.32"/>
        <lane id=":SimcoeTauntonJunction_13_1" index="1" speed="13.89" length="28.39" shape="-45.23,-173.97 -45.18,-202.32"/>
    </edge>
    <edge id=":SimcoeTauntonJunction_15" function="internal">
        <lane id=":SimcoeTauntonJunction_15_0" index="0" speed="10.54" length="13.03" shape="-42.03,-174.06 -41.00,-181.18 -38.02,-186.20"/>
    </edge>
    <edge id=":SimcoeTauntonJunction_17" function="internal">
        <lane id=":SimcoeTauntonJunction_17_0" index="0" speed="10.54" length="12.72" shape="-38.02,-186.20 -33.06,-189.14 -26.15,-189.99"/>
    </edge>

    <edge id="MaryRosslandEastApproach" from="J5" to="MaryRosslandJuction" priority="-1">
        <lane id="MaryRosslandEastApproach_0" index="0" speed="13.89" length="697.71" shape="1792.39,751.09 1097.09,693.16"/>
        <lane id="MaryRosslandEastApproach_1" index="1" speed="13.89" length="697.71" shape="1792.65,747.90 1097.35,689.97"/>
        <lane id="MaryRosslandEastApproach_2" index="2" speed="13.89" length="697.71" shape="1792.92,744.71 1097.62,686.78"/>
    </edge>
    <edge id="MaryRosslandNorthDepart" from="MaryRosslandJuction" to="J4" priority="-1">
        <lane id="MaryRosslandNorthDepart_0" index="0" speed="13.89" length="599.08" shape="1091.37,698.43 1091.87,1297.50"/>
        <lane id="MaryRosslandNorthDepart_1" index="1" speed="13.89" length="599.08" shape="1088.17,698.43 1088.67,1297.51"/>
        <lane id="MaryRosslandNorthDepart_2" index="2" speed="13.89" length="599.08" shape="1084.97,698.43 1085.47,1297.51"/>
    </edge>
    <edge id="MaryRosslandWestApproach" from="J14" to="MaryRosslandJuction" priority="-1">
        <lane id="MaryRosslandWestApproach_0" index="0" speed="13.89" length="888.35" shape="181.36,656.81 1069.43,675.69"/>
        <lane id="MaryRosslandWestApproach_1" index="1" speed="13.89" length="888.35" shape="181.29,660.01 1069.44,678.89"/>
        <lane id="MaryRosslandWestApproach_2" index="2" speed="13.89" length="888.35" shape="181.22,663.21 1069.45,682.09"/>
    </edge>
    <edge id="MaryTauntonEastApproach" from="J19" to="MaryTauntonJunction" priority="-1">
        <lane id="MaryTauntonEastApproach_0" index="0" speed="13.89" length="894.03" shape="874.78,692.58 -18.98,674.70"/>
        <lane id="MaryTauntonEastApproach_1" index="1" speed="13.89" length="894.03" shape="874.84,689.38 -19.00,671.50"/>
        <lane id="MaryTauntonEastApproach_2" index="2" speed="13.89" length="894.03" shape="874.91,686.18 -19.03,668.30"/>
    </edge>
    <edge id="MaryTauntonNorthDepart" from="MaryTauntonJunction" to="J1" priority="-1">
        <lane id="MaryTauntonNorthDepart_0" index="0" speed="13.89" length="631.46" shape="-24.49,680.25 -12.28,1311.59"/>
        <lane id="MaryTauntonNorthDepart_1" index="1" speed="13.89" length="631.46" shape="-27.69,680.31 -15.48,1311.65"/>
        <lane id="MaryTauntonNorthDepart_2" index="2" speed="13.89" length="631.46" shape="-30.89,680.37 -18.68,1311.71"/>
    </edge>
    <edge id="MaryTauntonSouthDepart" from="MaryTauntonJunction" to="J20" priority="-1">
        <lane id="MaryTauntonSouthDepart_0" index="0" speed="13.89" length="622.58" shape="-40.95,652.86 -49.55,30.33"/>
        <lane id="MaryTauntonSouthDepart_1" index="1" speed="13.89" length="622.58" shape="-37.75,652.81 -46.35,30.29"/>
        <lane id="MaryTauntonSouthDepart_2" index="2" speed="13.89" length="622.58" shape="-34.55,652.77 -43.15,30.24"/>
    </edge>
    <edge id="MaryTauntonWestApproach" from="J7" to="MaryTauntonJunction" priority="-1">
        <lane id="MaryTauntonWestApproach_0" index="0" speed="13.89" length="564.94" shape="-611.42,661.85 -46.48,658.50"/>
        <lane id="MaryTauntonWestApproach_1" index="1" speed="13.89" length="564.94" shape="-611.40,665.05 -46.46,661.70"/>
        <lane id="MaryTauntonWestApproach_2" index="2" speed="13.89" length="564.94" shape="-611.38,668.25 -46.45,664.90"/>
    </edge>
    <edge id="MaryTauntonWestDepart" from="MaryTauntonJunction" to="J7" priority="-1">
        <lane id="MaryTauntonWestDepart_0" index="0" speed="13.89" length="564.94" shape="-46.39,674.50 -611.32,677.85"/>
        <lane id="MaryTauntonWestDepart_1" index="1" speed="13.89" length="564.94" shape="-46.41,671.30 -611.34,674.65"/>
        <lane id="MaryTauntonWestDepart_2" index="2" speed="13.89" length="564.94" shape="-46.43,668.10 -611.36,671.45"/>
    </edge>
    <edge id="RosslandMaryEastDepart" from="MaryRosslandJuction" to="J5" priority="-1">
        <lane id="RosslandMaryEastDepart_0" index="0" speed="13.89" length="697.71" shape="1098.42,677.22 1793.71,735.15"/>
        <lane id="RosslandMaryEastDepart_1" index="1" speed="13.89" length="697.71" shape="1098.15,680.41 1793.45,738.34"/>
        <lane id="RosslandMaryEastDepart_2" index="2" speed="13.89" length="697.71" shape="1097.88,683.59 1793.18,741.53"/>
    </edge>
    <edge id="RosslandMaryNorthApproach" from="J4" to="MaryRosslandJuction" priority="-1">
        <lane id="RosslandMaryNorthApproach_0" index="0" speed="13.89" length="599.08" shape="1075.87,1297.52 1075.37,698.44"/>
        <lane id="RosslandMaryNorthApproach_1" index="1" speed="13.89" length="599.08" shape="1079.07,1297.51 1078.57,698.44"/>
        <lane id="RosslandMaryNorthApproach_2" index="2" speed="13.89" length="599.08" shape="1082.27,1297.51 1081.77,698.43"/>
    </edge>
    <edge id="RosslandMarySouthApproach" from="J16" to="MaryRosslandJuction" priority="-1">
        <lane id="RosslandMarySouthApproach_0" index="0" speed="13.89" length="603.97" shape="1103.72,65.90 1091.65,669.58"/>
        <lane id="RosslandMarySouthApproach_1" index="1" speed="13.89" length="603.97" shape="1100.52,65.84 1088.45,669.68"/>
        <lane id="RosslandMarySouthApproach_2" index="2" speed="13.89" length="603.97" shape="1097.32,65.78 1085.24,669.79"/>
    </edge>
    <edge id="RosslandMarySouthDepart" from="MaryRosslandJuction" to="J18" priority="-1">
        <lane id="RosslandMarySouthDepart_0" index="0" speed="13.89" length="145.68" shape="1074.89,670.13 1069.99,524.53"/>
        <lane id="RosslandMarySouthDepart_1" index="1" speed="13.89" length="145.68" shape="1078.09,670.02 1073.19,524.42"/>
        <lane id="RosslandMarySouthDepart_2" index="2" speed="13.89" length="145.68" shape="1081.29,669.92 1076.39,524.31"/>
    </edge>
    <edge id="RosslandMaryWestDepart" from="MaryRosslandJuction" to="J19" priority="-1">
        <lane id="RosslandMaryWestDepart_0" index="0" speed="13.89" length="194.51" shape="1069.47,692.03 874.96,692.58"/>
        <lane id="RosslandMaryWestDepart_1" index="1" speed="13.89" length="194.51" shape="1069.46,688.83 874.95,689.38"/>
        <lane id="RosslandMaryWestDepart_2" index="2" speed="13.89" length="194.51" shape="1069.46,685.63 874.94,686.18"/>
    </edge>
    <edge id="RosslandSimcoeEastDepart" from="SimcoeRosslandJunction" to="J9" priority="-1">
        <lane id="RosslandSimcoeEastDepart_0" index="0" speed="13.89" length="706.84" shape="1113.57,-118.78 1820.10,-97.60"/>
        <lane id="RosslandSimcoeEastDepart_1" index="1" speed="13.89" length="706.84" shape="1113.48,-115.59 1820.00,-94.40"/>
        <lane id="RosslandSimcoeEastDepart_2" index="2" speed="13.89" length="706.84" shape="1113.38,-112.39 1819.91,-91.20"/>
    </edge>
    <edge id="RosslandSimcoeNorthApproach" from="J18" to="SimcoeRosslandJunction" priority="-1">
        <lane id="RosslandSimcoeNorthApproach_0" index="0" speed="13.89" length="622.09" shape="1069.99,523.99 1091.12,-97.70"/>
        <lane id="RosslandSimcoeNorthApproach_1" index="1" speed="13.89" length="622.09" shape="1073.19,524.10 1094.32,-97.63"/>
        <lane id="RosslandSimcoeNorthApproach_2" index="2" speed="13.89" length="622.09" shape="1076.39,524.21 1097.52,-97.56"/>
    </edge>
    <edge id="RosslandSimcoeSouthApproach" from="J12" to="SimcoeRosslandJunction" priority="-1">
        <lane id="RosslandSimcoeSouthApproach_0" index="0" speed="13.89" length="627.61" shape="1137.40,-751.61 1108.22,-124.68"/>
        <lane id="RosslandSimcoeSouthApproach_1" index="1" speed="13.89" length="627.61" shape="1134.20,-751.76 1105.02,-124.83"/>
        <lane id="RosslandSimcoeSouthApproach_2" index="2" speed="13.89" length="627.61" shape="1131.01,-751.91 1101.82,-124.98"/>
    </edge>
    <edge id="SimcoeRosslandEastApproach" from="J9" to="SimcoeRosslandJunction" priority="-1">
        <lane id="SimcoeRosslandEastApproach_0" index="0" speed="13.89" length="706.84" shape="1819.62,-81.60 1113.09,-102.79"/>
        <lane id="SimcoeRosslandEastApproach_1" index="1" speed="13.89" length="706.84" shape="1819.72,-84.80 1113.19,-105.99"/>
        <lane id="SimcoeRosslandEastApproach_2" index="2" speed="13.89" length="706.84" shape="1819.81,-88.00 1113.29,-109.19"/>
    </edge>
    <edge id="SimcoeRosslandNorthDepart" from="SimcoeRosslandJunction" to="J16" priority="-1">
        <lane id="SimcoeRosslandNorthDepart_0" index="0" speed="13.89" length="163.00" shape="1107.28,-97.35 1103.72,65.61"/>
        <lane id="SimcoeRosslandNorthDepart_1" index="1" speed="13.89" length="163.00" shape="1104.08,-97.42 1100.52,65.54"/>
        <lane id="SimcoeRosslandNorthDepart_2" index="2" speed="13.89" length="163.00" shape="1100.88,-97.49 1097.32,65.47"/>
    </edge>
    <edge id="SimcoeRosslandSouthDepart" from="SimcoeRosslandJunction" to="J12" priority="-1">
        <lane id="SimcoeRosslandSouthDepart_0" index="0" speed="13.89" length="627.61" shape="1092.23,-125.43 1121.42,-752.35"/>
        <lane id="SimcoeRosslandSouthDepart_1" index="1" speed="13.89" length="627.61" shape="1095.43,-125.28 1124.62,-752.20"/>
        <lane id="SimcoeRosslandSouthDepart_2" index="2" speed="13.89" length="627.61" shape="1098.63,-125.13 1127.81,-752.05"/>
    </edge>
    <edge id="SimcoeRosslandWestApproach" from="J13" to="SimcoeRosslandJunction" priority="-1">
        <lane id="SimcoeRosslandWestApproach_0" index="0" speed="13.89" length="985.91" shape="103.26,-193.14 1086.38,-120.20"/>
        <lane id="SimcoeRosslandWestApproach_1" index="1" speed="13.89" length="985.91" shape="103.02,-189.95 1086.23,-117.00"/>
        <lane id="SimcoeRosslandWestApproach_2" index="2" speed="13.89" length="985.91" shape="102.78,-186.76 1086.07,-113.81"/>
    </edge>
    <edge id="SimcoeRosslandWestDepart" from="SimcoeRosslandJunction" to="J17" priority="-1">
        <lane id="SimcoeRosslandWestDepart_0" index="0" speed="13.89" length="183.97" shape="1085.59,-103.87 901.83,-112.79"/>
        <lane id="SimcoeRosslandWestDepart_1" index="1" speed="13.89" length="183.97" shape="1085.74,-107.07 901.99,-115.99"/>