<edges>
	<edge id="165398123_1769478550_1769478569" from="1769478550" to="1769478569" numLanes="2" shape="670253.45,4866606.86,0.00 670262.14,4866610.42,0.00 670266.39,4866612.02,0.00 670267.66,4866612.68,0.00 670325.58,4866632.15,0.00 670335.00,4866640.79,0.00" speed="13.89" />
	<edge id="165398133_1769478596_904994118" from="1769478596" to="904994118" numLanes="4" shape="670237.55,4866651.62,0.00 670235.53,4866645.55,0.00 670234.05,4866642.02,0.00 670236.88,4866628.13,0.00 670237.50,4866625.29,0.00 670240.04,4866613.90,0.00" speed="13.89" />
	<edge id="165398121_1769478573_1769478599" from="1769478573" to="1769478599" numLanes="4" shape="670197.55,4866594.84,0.00 670205.70,4866591.33,0.00 670228.73,4866599.20,0.00 670242.19,4866603.80,0.00" speed="13.89" />
	<edge id="165398142_1769478599_1769478609" from="1769478599" to="1769478609" numLanes="2" shape="670242.19,4866603.80,0.00 670245.53,4866590.83,0.00 670254.21,4866555.50,0.00 670256.02,4866550.02,0.00 670263.14,4866543.20,0.00" speed="13.89" />
	<edge id="165398627_904994118_1769478573" from="904994118" to="1769478573" numLanes="2" shape="670240.04,4866613.90,0.00 670225.07,4866608.38,0.00 670203.04,4866600.95,0.00 670197.55,4866594.84,0.00" speed="13.89" />
	<edge id="165398141_1769478596_321920939" from="1769478596" to="321920939" numLanes="2" shape="670237.55,4866651.62,0.00 670235.39,4866660.91,0.00 670233.23,4866670.25,0.00 670232.45,4866673.63,0.00 670226.72,4866691.22,0.00 670220.64,4866706.78,0.00 670214.37,4866722.83,0.00 670209.91,4866734.24,0.00 670207.89,4866740.83,0.00 670197.69,4866770.12,0.00 670181.53,4866816.53,0.00 670163.44,4866868.44,0.00 670116.30,4866998.40,0.00 670112.57,4867008.67,0.00" speed="13.89" />
	<edge id="164603804_4386081499_1769478569" from="4386081499" to="1769478569" numLanes="2" shape="670669.04,4866753.98,0.00 670637.58,4866743.16,0.00 670622.12,4866737.92,0.00 670615.89,4866735.36,0.00 670572.42,4866720.95,0.00 670557.89,4866715.89,0.00 670516.38,4866701.59,0.00 670448.51,4866678.21,0.00 670412.57,4866667.34,0.00 670388.25,4866658.95,0.00 670383.09,4866657.06,0.00 670351.48,4866645.70,0.00 670343.49,4866643.14,0.00 670335.00,4866640.79,0.00" speed="13.89" />
	<edge id="242081428_1769478599_1769478550" from="1769478599" to="1769478550" numLanes="2" shape="670242.19,4866603.80,0.00 670253.45,4866606.86,0.00" speed="13.89" />
	<edge id="242081426_1769478550_1769478532" from="1769478550" to="1769478532" numLanes="2" shape="670253.45,4866606.86,0.00 670251.09,4866617.51,0.00" speed="13.89" />
	<edge id="165398138_1769478532_904994118" from="1769478532" to="904994118" numLanes="2" shape="670251.09,4866617.51,0.00 670240.04,4866613.90,0.00" speed="13.89" />
	<edge id="165398141_321920939_1769478596" from="321920939" to="1769478596" numLanes="2" shape="670112.57,4867008.67,0.00 670116.30,4866998.40,0.00 670163.44,4866868.44,0.00 670181.53,4866816.53,0.00 670197.69,4866770.12,0.00 670207.89,4866740.83,0.00 670209.91,4866734.24,0.00 670214.37,4866722.83,0.00 670220.64,4866706.78,0.00 670226.72,4866691.22,0.00 670232.45,4866673.63,0.00 670233.23,4866670.25,0.00 670235.39,4866660.91,0.00 670237.55,4866651.62,0.00" speed="13.89" />
	<edge id="165398117_1769478569_1769478532" from="1769478569" to="1769478532" numLanes="3" shape="670335.00,4866640.79,0.00 670322.32,4866640.85,0.00 670265.62,4866622.34,0.00 670263.25,4866621.54,0.00 670259.75,4866620.39,0.00 670251.09,4866617.51,0.00" speed="13.89" />
	<edge id="165398127_1769478532_1769478596" from="1769478532" to="1769478596" numLanes="2" shape="670251.09,4866617.51,0.00 670248.86,4866628.07,0.00 670248.04,4866631.95,0.00 670245.07,4866644.51,0.00 670237.55,4866651.62,0.00" speed="13.89" />
	<edge id="165398114_904994118_1769478599" from="904994118" to="1769478599" numLanes="4" shape="670240.04,4866613.90,0.00 670242.19,4866603.80,0.00" speed="13.89" />
	<edge id="165398134_1769478609_1769478550" from="1769478609" to="1769478550" numLanes="4" shape="670263.14,4866543.20,0.00 670265.52,4866552.54,0.00 670264.79,4866555.89,0.00 670256.63,4866593.39,0.00 670256.41,4866594.39,0.00 670253.45,4866606.86,0.00" speed="13.89" />
	<edge id="164603804_1769478569_4386081499" from="1769478569" to="4386081499" numLanes="2" shape="670335.00,4866640.79,0.00 670343.49,4866643.14,0.00 670351.48,4866645.70,0.00 670383.09,4866657.06,0.00 670388.25,4866658.95,0.00 670412.57,4866667.34,0.00 670448.51,4866678.21,0.00 670516.38,4866701.59,0.00 670557.89,4866715.89,0.00 670572.42,4866720.95,0.00 670615.89,4866735.36,0.00 670622.12,4866737.92,0.00 670637.58,4866743.16,0.00 670669.04,4866753.98,0.00" speed="13.89" />
	<edge id="84012991_1769478573_9067151913" from="1769478573" to="9067151913" numLanes="2" shape="670197.55,4866594.84,0.00 670146.06,4866578.12,0.00 669921.25,4866498.86,0.00" speed="13.89" />
	<edge id="84012991_9067151913_1769478573" from="9067151913" to="1769478573" numLanes="2" shape="669921.25,4866498.86,0.00 670146.06,4866578.12,0.00 670197.55,4866594.84,0.00" speed="13.89" />
</edges>
