<?xml version="1.0" encoding="UTF-8"?>

<!-- generated on 2024-04-02 15:38:14 by Eclipse SUMO netconvert Version 1.19.0
<configuration xmlns:xsi="http://www.w3.org/2001/XMLSchema-instance" xsi:noNamespaceSchemaLocation="http://sumo.dlr.de/xsd/netconvertConfiguration.xsd">

    <input>
        <node-files value="C:\CAV\mosaic\scenario-convert-24.0\map\sumo\map.nod.xml"/>
        <edge-files value="C:\CAV\mosaic\scenario-convert-24.0\map\sumo\map.edg.xml"/>
        <connection-files value="C:\CAV\mosaic\scenario-convert-24.0\map\sumo\map.con.xml"/>
    </input>

    <output>
        <output-file value="C:\CAV\mosaic\scenario-convert-24.0\map\sumo\map.net.xml"/>
    </output>

</configuration>
-->

<net version="1.16" junctionCornerDetail="5" limitTurnSpeed="5.50" xmlns:xsi="http://www.w3.org/2001/XMLSchema-instance" xsi:noNamespaceSchemaLocation="http://sumo.dlr.de/xsd/net_file.xsd">

    <location netOffset="-669921.25,-4866498.86" convBoundary="0.00,0.00,747.79,509.81" origBoundary="669921.25,4866498.86,670669.04,4867008.67" projParameter="+proj=utm +zone=17  +ellps=WGS84 +datum=WGS84 +units=m +no_defs"/>

    <edge id=":1769478532_0" function="internal">
        <lane id=":1769478532_0_0" index="0" speed="6.28" length="9.04" shape="338.26,129.87 335.78,129.43 333.83,129.93 332.43,131.36 331.56,133.72"/>
    </edge>
    <edge id=":1769478532_1" function="internal">
        <lane id=":1769478532_1_0" index="0" speed="13.89" length="15.51" shape="339.27,126.84 324.55,121.97"/>
        <lane id=":1769478532_1_1" index="1" speed="13.89" length="15.51" shape="340.28,123.80 325.54,118.93"/>
    </edge>
    <edge id=":1769478532_3" function="internal">
        <lane id=":1769478532_3_0" index="0" speed="13.89" length="18.36" shape="335.39,115.78 331.56,133.72"/>
        <lane id=":1769478532_3_1" index="1" speed="13.89" length="18.36" shape="332.27,115.09 328.43,133.06"/>
    </edge>
    <edge id=":1769478532_5" function="internal">
        <lane id=":1769478532_5_0" index="0" speed="6.30" length="9.04" shape="332.27,115.09 331.38,117.44 329.96,118.86 328.02,119.36 325.54,118.93"/>
    </edge>
    <edge id=":1769478550_0" function="internal">
        <lane id=":1769478550_0_0" index="0" speed="6.97" length="9.77" shape="345.37,101.03 344.94,104.11 345.27,106.52 346.37,108.27 348.24,109.36"/>
    </edge>
    <edge id=":1769478550_1" function="internal">
        <lane id=":1769478550_1_0" index="0" speed="13.89" length="14.76" shape="342.25,100.29 340.77,104.34 339.04,106.86 337.33,109.39 335.91,113.46"/>
        <lane id=":1769478550_1_1" index="1" speed="13.89" length="14.76" shape="339.14,99.55 337.65,103.62 335.92,106.15 334.21,108.68 332.78,112.76"/>
    </edge>
    <edge id=":1769478550_3" function="internal">
        <lane id=":1769478550_3_0" index="0" speed="13.89" length="19.37" shape="329.96,102.42 335.49,104.14 339.16,105.68 342.80,107.32 348.24,109.36"/>
        <lane id=":1769478550_3_1" index="1" speed="13.89" length="19.37" shape="329.12,105.50 334.54,107.20 338.13,108.72 341.69,110.33 347.02,112.33"/>
    </edge>
    <edge id=":1769478550_5" function="internal">
        <lane id=":1769478550_5_0" index="0" speed="6.66" length="9.16" shape="329.12,105.50 331.21,106.47 332.52,108.00 333.05,110.09 332.78,112.76"/>
    </edge>
    <edge id=":1769478569_0" function="internal">
        <lane id=":1769478569_0_0" index="0" speed="13.89" length="8.93" shape="417.81,148.03 415.46,147.87 413.85,148.57 412.22,149.49 409.79,149.95"/>
        <lane id=":1769478569_0_1" index="1" speed="13.89" length="8.93" shape="418.66,144.95 416.07,144.72 414.28,145.39 412.46,146.29 409.77,146.75"/>
        <lane id=":1769478569_0_2" index="2" speed="13.89" length="8.93" shape="418.66,144.95 416.07,144.22 414.27,143.79 412.44,143.59 409.76,143.55"/>
    </edge>
    <edge id=":1769478569_3" function="internal">
        <lane id=":1769478569_3_0" index="0" speed="3.65" length="1.44" shape="418.66,144.95 417.72,143.86"/>
    </edge>
    <edge id=":1769478569_6" function="internal">
        <lane id=":1769478569_6_0" index="0" speed="3.65" length="3.23" shape="417.72,143.86 417.55,142.98 418.15,142.32 419.52,141.87"/>
    </edge>
    <edge id=":1769478569_4" function="internal">
        <lane id=":1769478569_4_0" index="0" speed="13.89" length="9.43" shape="412.91,134.65 414.82,136.35 416.28,137.37 417.91,138.06 420.37,138.78"/>
        <lane id=":1769478569_4_1" index="1" speed="13.89" length="9.43" shape="410.75,137.01 413.00,139.01 414.71,140.21 416.63,141.02 419.52,141.87"/>
    </edge>
    <edge id=":1769478573_0" function="internal">
        <lane id=":1769478573_0_0" index="0" speed="13.89" length="15.23" shape="274.89,101.59 271.81,98.87 269.12,97.82 266.06,97.34 261.87,96.34"/>
        <lane id=":1769478573_0_1" index="1" speed="13.89" length="15.23" shape="277.27,99.45 273.85,96.37 270.89,95.09 267.51,94.46 262.85,93.30"/>
    </edge>
    <edge id=":1769478573_2" function="internal">
        <lane id=":1769478573_2_0" index="0" speed="6.23" length="3.78" shape="277.27,99.45 274.96,96.46"/>
        <lane id=":1769478573_2_1" index="1" speed="5.22" length="3.72" shape="277.27,99.45 275.89,97.58 275.46,96.25"/>
    </edge>
    <edge id=":1769478573_9" function="internal">
        <lane id=":1769478573_9_0" index="0" speed="6.23" length="6.46" shape="274.96,96.46 273.94,94.05 274.22,92.22 275.79,90.98"/>
    </edge>
    <edge id=":1769478573_10" function="internal">
        <lane id=":1769478573_10_0" index="0" speed="5.22" length="3.07" shape="275.46,96.25 275.39,96.04 275.78,94.81 277.05,93.91"/>
    </edge>
    <edge id=":1769478573_4" function="internal">
        <lane id=":1769478573_4_0" index="0" speed="10.63" length="11.50" shape="264.83,87.21 267.33,87.69 269.10,87.30 270.84,86.34 273.25,85.10"/>
        <lane id=":1769478573_4_1" index="1" speed="11.21" length="11.50" shape="264.83,87.21 267.67,88.24 269.73,88.91 271.77,88.93 274.52,88.04"/>
        <lane id=":1769478573_4_2" index="2" speed="12.39" length="11.50" shape="263.84,90.25 267.34,91.48 269.89,92.19 272.40,92.12 275.79,90.98"/>
        <lane id=":1769478573_4_3" index="3" speed="13.30" length="11.50" shape="263.84,90.25 267.77,92.10 270.53,93.89 273.25,94.78 277.05,93.91"/>
    </edge>
    <edge id=":1769478573_8" function="internal">
        <lane id=":1769478573_8_0" index="0" speed="3.65" length="1.44" shape="263.84,90.25 264.74,91.38"/>
    </edge>
    <edge id=":1769478573_11" function="internal">
        <lane id=":1769478573_11_0" index="0" speed="3.65" length="3.23" shape="264.74,91.38 264.87,92.27 264.24,92.91 262.85,93.30"/>
    </edge>
    <edge id=":1769478596_0" function="internal">
        <lane id=":1769478596_0_0" index="0" speed="8.41" length="4.84" shape="322.09,153.89 321.27,154.70 320.79,155.34 320.48,156.07 320.20,157.19"/>
        <lane id=":1769478596_0_1" index="1" speed="10.14" length="4.84" shape="319.89,151.57 318.68,152.76 317.96,153.71 317.50,154.81 317.08,156.46"/>
    </edge>
    <edge id=":1769478596_2" function="internal">
        <lane id=":1769478596_2_0" index="0" speed="6.20" length="4.01" shape="319.89,151.57 316.77,154.09"/>
        <lane id=":1769478596_2_1" index="1" speed="5.17" length="3.77" shape="319.89,151.57 317.92,153.12 316.73,153.54"/>
    </edge>
    <edge id=":1769478596_9" function="internal">
        <lane id=":1769478596_9_0" index="0" speed="6.20" length="6.79" shape="316.77,154.09 314.30,155.14 312.46,154.73 311.27,152.85"/>
    </edge>
    <edge id=":1769478596_10" function="internal">
        <lane id=":1769478596_10_0" index="0" speed="5.17" length="3.33" shape="316.73,153.54 316.34,153.68 315.13,153.25 314.31,151.84"/>
    </edge>
    <edge id=":1769478596_4" function="internal">
        <lane id=":1769478596_4_0" index="0" speed="10.60" length="4.19" shape="310.85,155.01 305.20,154.87"/>
        <lane id=":1769478596_4_1" index="1" speed="7.68" length="4.19" shape="310.85,155.01 308.24,153.86"/>
        <lane id=":1769478596_4_2" index="2" speed="9.26" length="4.19" shape="313.97,155.74 313.82,154.74 313.02,154.28 312.02,153.82 311.27,152.85"/>
        <lane id=":1769478596_4_3" index="3" speed="9.00" length="4.19" shape="313.97,155.74 314.29,154.59 314.53,153.77 314.58,152.97 314.31,151.84"/>
    </edge>
    <edge id=":1769478596_8" function="internal">
        <lane id=":1769478596_8_0" index="0" speed="3.65" length="1.44" shape="313.97,155.74 315.02,154.75"/>
    </edge>
    <edge id=":1769478596_11" function="internal">
        <lane id=":1769478596_11_0" index="0" speed="3.65" length="3.23" shape="315.02,154.75 315.89,154.54 316.57,155.11 317.08,156.46"/>
    </edge>
    <edge id=":1769478599_0" function="internal">
        <lane id=":1769478599_0_0" index="0" speed="7.63" length="13.66" shape="308.58,88.88 313.31,90.12 316.89,90.21 319.31,89.15 320.57,86.95"/>
    </edge>
    <edge id=":1769478599_1" function="internal">
        <lane id=":1769478599_1_0" index="0" speed="13.89" length="20.99" shape="307.54,91.91 313.23,94.43 316.87,96.91 320.48,99.25 326.06,101.36"/>
        <lane id=":1769478599_1_1" index="1" speed="13.89" length="20.99" shape="306.51,94.94 312.26,97.48 315.97,99.98 319.62,102.33 325.22,104.44"/>
    </edge>
    <edge id=":1769478599_3" function="internal">
        <lane id=":1769478599_3_0" index="0" speed="13.89" length="22.89" shape="309.15,106.52 311.60,100.15 314.85,96.22 318.11,92.54 320.57,86.95"/>
        <lane id=":1769478599_3_1" index="1" speed="13.89" length="22.89" shape="312.28,107.19 314.72,100.87 317.96,96.97 321.21,93.33 323.67,87.74"/>
    </edge>
    <edge id=":1769478599_5" function="internal">
        <lane id=":1769478599_5_0" index="0" speed="7.90" length="14.41" shape="315.41,107.85 316.79,104.12 319.02,101.79 322.11,100.87 326.06,101.36"/>
        <lane id=":1769478599_5_1" index="1" speed="6.39" length="9.04" shape="318.54,108.52 319.40,106.18 320.80,104.72 322.74,104.14 325.22,104.44"/>
    </edge>
    <edge id=":1769478609_0" function="internal">
        <lane id=":1769478609_0_0" index="0" speed="8.82" length="24.35" shape="335.68,43.64 342.11,38.68 347.26,37.32 351.14,39.58 353.73,45.45"/>
        <lane id=":1769478609_0_1" index="1" speed="8.14" length="20.52" shape="335.68,43.64 340.92,39.68 345.16,38.79 348.40,40.98 350.63,46.24"/>
        <lane id=":1769478609_0_2" index="2" speed="7.41" length="16.74" shape="335.68,43.64 339.73,40.68 343.06,40.26 345.66,42.38 347.53,47.03"/>
        <lane id=":1769478609_0_3" index="3" speed="5.68" length="9.23" shape="337.89,45.95 340.13,44.32 341.96,44.09 343.40,45.25 344.43,47.82"/>
    </edge>
    <edge id=":321920939_0" function="internal">
        <lane id=":321920939_0_0" index="0" speed="3.65" length="4.67" shape="192.82,510.36 191.66,511.21 190.77,511.31 190.16,510.66 189.82,509.26"/>
    </edge>
    <edge id=":4386081499_0" function="internal">
        <lane id=":4386081499_0_0" index="0" speed="3.65" length="4.67" shape="748.31,253.61 749.18,254.75 749.30,255.64 748.66,256.27 747.27,256.63"/>
    </edge>
    <edge id=":904994118_0" function="internal">
        <lane id=":904994118_0_0" index="0" speed="13.89" length="20.66" shape="321.21,120.88 301.71,113.87"/>
        <lane id=":904994118_0_1" index="1" speed="13.89" length="20.66" shape="322.21,117.84 302.82,110.87"/>
    </edge>
    <edge id=":904994118_2" function="internal">
        <lane id=":904994118_2_0" index="0" speed="7.90" length="12.67" shape="322.21,117.84 318.64,116.25 316.29,114.22 315.14,111.74 315.21,108.81"/>
        <lane id=":904994118_2_1" index="1" speed="7.16" length="10.25" shape="322.21,117.84 319.98,116.67 318.60,114.89 318.05,112.49 318.34,109.48"/>
    </edge>
    <edge id=":904994118_4" function="internal">
        <lane id=":904994118_4_0" index="0" speed="7.20" length="10.38" shape="305.70,122.29 306.00,119.30 305.43,116.90 304.00,115.09 301.71,113.87"/>
    </edge>
    <edge id=":904994118_5" function="internal">
        <lane id=":904994118_5_0" index="0" speed="13.89" length="15.21" shape="305.70,122.29 308.95,107.48"/>
        <lane id=":904994118_5_1" index="1" speed="13.89" length="15.21" shape="308.82,122.99 312.08,108.14"/>
        <lane id=":904994118_5_2" index="2" speed="13.89" length="15.21" shape="311.94,123.68 315.21,108.81"/>
        <lane id=":904994118_5_3" index="3" speed="13.89" length="15.21" shape="315.07,124.38 318.34,109.48"/>
    </edge>
    <edge id=":9067151913_0" function="internal">
        <lane id=":9067151913_0_0" index="0" speed="3.65" length="4.67" shape="-0.53,1.51 -1.40,0.36 -1.51,-0.53 -0.87,-1.15 0.53,-1.51"/>
    </edge>

    <edge id="164603804_1769478569_4386081499" from="1769478569" to="4386081499" priority="-1" shape="413.75,141.93 422.24,144.28 430.23,146.84 461.84,158.20 467.00,160.09 491.32,168.48 527.26,179.35 595.13,202.73 636.64,217.03 651.17,222.09 694.64,236.50 700.87,239.06 716.33,244.30 747.79,255.12">
        <lane id="164603804_1769478569_4386081499_0" index="0" speed="13.89" length="347.41" shape="420.37,138.78 423.61,139.68 431.77,142.29 463.47,153.68 468.61,155.57 492.80,163.91 528.74,174.78 596.69,198.19 638.21,212.49 652.71,217.55 696.31,232.00 702.55,234.56 717.88,239.76 749.35,250.58"/>
        <lane id="164603804_1769478569_4386081499_1" index="1" speed="13.89" length="347.41" shape="419.52,141.87 422.70,142.75 430.74,145.32 462.38,156.69 467.54,158.58 491.81,166.96 527.75,177.83 595.65,201.22 637.16,215.52 651.68,220.58 695.20,235.00 701.43,237.56 716.85,242.79 748.31,253.61"/>
    </edge>
    <edge id="164603804_4386081499_1769478569" from="4386081499" to="1769478569" priority="-1" shape="747.79,255.12 716.33,244.30 700.87,239.06 694.64,236.50 651.17,222.09 636.64,217.03 595.13,202.73 527.26,179.35 491.32,168.48 467.00,160.09 461.84,158.20 430.23,146.84 422.24,144.28 413.75,141.93">
        <lane id="164603804_4386081499_1769478569_0" index="0" speed="13.89" length="347.02" shape="746.23,259.66 714.78,248.84 699.19,243.56 692.97,241.00 649.63,226.63 635.07,221.57 593.57,207.27 525.78,183.92 489.84,173.05 465.39,164.61 460.20,162.71 428.69,151.39 420.87,148.88 417.81,148.03"/>
        <lane id="164603804_4386081499_1769478569_1" index="1" speed="13.89" length="347.02" shape="747.27,256.63 715.81,245.81 700.31,240.56 694.08,238.00 650.66,223.60 636.12,218.54 594.61,204.24 526.77,180.87 490.83,170.00 466.46,161.60 461.29,159.70 429.72,148.36 421.78,145.81 418.66,144.95"/>
    </edge>
    <edge id="165398114_904994118_1769478599" from="904994118" to="1769478599" priority="-1">
        <lane id="165398114_904994118_1769478599_0" index="0" speed="13.89" length="0.98" shape="308.95,107.48 309.15,106.52"/>
        <lane id="165398114_904994118_1769478599_1" index="1" speed="13.89" length="0.98" shape="312.08,108.14 312.28,107.19"/>
        <lane id="165398114_904994118_1769478599_2" index="2" speed="13.89" length="0.98" shape="315.21,108.81 315.41,107.85"/>
        <lane id="165398114_904994118_1769478599_3" index="3" speed="13.89" length="0.98" shape="318.34,109.48 318.54,108.52"/>
    </edge>
    <edge id="165398117_1769478569_1769478532" from="1769478569" to="1769478532" priority="-1" shape="413.75,141.93 401.07,141.99 344.37,123.48 342.00,122.68 338.50,121.53 329.84,118.65">
        <lane id="165398117_1769478569_1769478532_0" index="0" speed="13.89" length="73.68" shape="409.79,149.95 399.82,150.00 341.88,131.08 339.48,130.27 338.26,129.87"/>
        <lane id="165398117_1769478569_1769478532_1" index="1" speed="13.89" length="73.68" shape="409.77,146.75 400.32,146.79 342.88,128.04 340.49,127.24 339.27,126.84"/>
        <lane id="165398117_1769478569_1769478532_2" index="2" speed="13.89" length="73.68" shape="409.76,143.55 400.82,143.59 343.87,125.00 341.50,124.20 340.28,123.80"/>
    </edge>
    <edge id="165398121_1769478573_1769478599" from="1769478573" to="1769478599" priority="-1" shape="276.30,95.98 284.45,92.47 307.48,100.34 320.94,104.94">
        <lane id="165398121_1769478573_1769478599_0" index="0" speed="13.89" length="33.97" shape="273.25,85.10 283.99,80.48 308.58,88.88"/>
        <lane id="165398121_1769478573_1769478599_1" index="1" speed="13.89" length="33.97" shape="274.52,88.04 284.12,83.90 307.54,91.91"/>
        <lane id="165398121_1769478573_1769478599_2" index="2" speed="13.89" length="33.97" shape="275.79,90.98 284.25,87.33 306.51,94.94"/>
        <lane id="165398121_1769478573_1769478599_3" index="3" speed="13.89" length="33.97" shape="277.05,93.91 284.38,90.76 305.47,97.96"/>
    </edge>
    <edge id="165398123_1769478550_1769478569" from="1769478550" to="1769478569" priority="-1" shape="332.20,108.00 340.89,111.56 345.14,113.16 346.41,113.82 404.33,133.29 413.75,141.93">
        <lane id="165398123_1769478550_1769478569_0" index="0" speed="13.89" length="69.50" shape="348.24,109.36 406.82,129.06 412.91,134.65"/>
        <lane id="165398123_1769478550_1769478569_1" index="1" speed="13.89" length="69.50" shape="347.02,112.33 405.16,131.88 410.75,137.01"/>
    </edge>
    <edge id="165398127_1769478532_1769478596" from="1769478532" to="1769478596" priority="-1" shape="329.84,118.65 327.61,129.21 326.79,133.09 323.82,145.65 316.30,152.76">
        <lane id="165398127_1769478532_1769478596_0" index="0" speed="13.89" length="22.19" shape="331.56,133.72 331.47,134.14 328.16,148.15 322.09,153.89"/>
        <lane id="165398127_1769478532_1769478596_1" index="1" speed="13.89" length="22.19" shape="328.43,133.06 328.35,133.44 325.27,146.48 319.89,151.57"/>
    </edge>
    <edge id="165398133_1769478596_904994118" from="1769478596" to="904994118" priority="-1" shape="316.30,152.76 314.28,146.69 312.80,143.16 315.63,129.27 316.25,126.43 318.79,115.04">
        <lane id="165398133_1769478596_904994118_0" index="0" speed="13.89" length="31.13" shape="305.20,154.87 303.79,150.63 301.14,144.31 304.66,127.01 305.32,124.00 305.70,122.29"/>
        <lane id="165398133_1769478596_904994118_1" index="1" speed="13.89" length="31.13" shape="308.24,153.86 306.78,149.50 304.47,143.98 307.79,127.65 308.44,124.70 308.82,122.99"/>
        <lane id="165398133_1769478596_904994118_2" index="2" speed="13.89" length="31.13" shape="311.27,152.85 309.78,148.38 307.80,143.65 310.93,128.30 311.56,125.39 311.94,123.68"/>
        <lane id="165398133_1769478596_904994118_3" index="3" speed="13.89" length="31.13" shape="314.31,151.84 312.78,147.25 311.13,143.32 314.06,128.95 314.69,126.08 315.07,124.38"/>
    </edge>
    <edge id="165398134_1769478609_1769478550" from="1769478609" to="1769478550" priority="-1" shape="341.89,44.34 344.27,53.68 343.54,57.03 335.38,94.53 335.16,95.53 332.20,108.00">
        <lane id="165398134_1769478609_1769478550_0" index="0" speed="13.89" length="54.60" shape="353.73,45.45 355.78,53.48 354.48,59.41 346.32,96.91 346.08,98.03 345.37,101.03"/>
        <lane id="165398134_1769478609_1769478550_1" index="1" speed="13.89" length="54.60" shape="350.63,46.24 352.49,53.54 351.36,58.73 343.20,96.23 342.96,97.31 342.25,100.29"/>
        <lane id="165398134_1769478609_1769478550_2" index="2" speed="13.89" length="54.60" shape="347.53,47.03 349.20,53.59 348.23,58.05 340.07,95.55 339.84,96.60 339.14,99.55"/>
        <lane id="165398134_1769478609_1769478550_3" index="3" speed="13.89" length="54.60" shape="344.43,47.82 345.91,53.65 345.10,57.37 336.94,94.87 336.72,95.89 336.03,98.81"/>
    </edge>
    <edge id="165398138_1769478532_904994118" from="1769478532" to="904994118" priority="-1">
        <lane id="165398138_1769478532_904994118_0" index="0" speed="13.89" length="3.51" shape="324.55,121.97 321.21,120.88"/>
        <lane id="165398138_1769478532_904994118_1" index="1" speed="13.89" length="3.51" shape="325.54,118.93 322.21,117.84"/>
    </edge>
    <edge id="165398141_1769478596_321920939" from="1769478596" to="321920939" priority="-1" shape="316.30,152.76 314.14,162.05 311.98,171.39 311.20,174.77 305.47,192.36 299.39,207.92 293.12,223.97 288.66,235.38 286.64,241.97 276.44,271.26 260.28,317.67 242.19,369.58 195.05,499.54 191.32,509.81">
        <lane id="165398141_1769478596_321920939_0" index="0" speed="13.89" length="375.43" shape="320.20,157.19 318.82,163.13 316.66,172.47 315.83,176.06 309.99,193.98 303.86,209.67 297.59,225.72 293.20,236.96 291.20,243.46 280.97,272.84 264.81,319.25 246.71,371.19 199.56,501.18 195.83,511.45"/>
        <lane id="165398141_1769478596_321920939_1" index="1" speed="13.89" length="375.43" shape="317.08,156.46 315.70,162.41 313.54,171.75 312.74,175.20 306.98,192.90 300.88,208.50 294.61,224.55 290.17,235.91 288.16,242.47 277.95,271.79 261.79,318.20 243.70,370.12 196.55,500.09 192.82,510.36"/>
    </edge>
    <edge id="165398141_321920939_1769478596" from="321920939" to="1769478596" priority="-1" shape="191.32,509.81 195.05,499.54 242.19,369.58 260.28,317.67 276.44,271.26 286.64,241.97 288.66,235.38 293.12,223.97 299.39,207.92 305.47,192.36 311.20,174.77 311.98,171.39 314.14,162.05 316.30,152.76">
        <lane id="165398141_321920939_1769478596_0" index="0" speed="13.89" length="374.66" shape="186.81,508.17 190.54,497.90 237.67,367.97 255.75,316.09 271.91,269.68 282.08,240.48 284.12,233.80 288.65,222.22 294.92,206.17 300.95,190.74 306.57,173.48 307.30,170.31 309.46,160.97 310.85,155.01"/>
        <lane id="165398141_321920939_1769478596_1" index="1" speed="13.89" length="374.66" shape="189.82,509.26 193.55,498.99 240.68,369.04 258.77,317.14 274.93,270.73 285.12,241.47 287.15,234.85 291.63,223.39 297.90,207.34 303.96,191.82 309.66,174.34 310.42,171.03 312.58,161.69 313.97,155.74"/>
    </edge>
    <edge id="165398142_1769478599_1769478609" from="1769478599" to="1769478609" priority="-1" shape="320.94,104.94 324.28,91.97 332.96,56.64 334.77,51.16 341.89,44.34">
        <lane id="165398142_1769478599_1769478609_0" index="0" speed="13.89" length="45.88" shape="320.57,86.95 328.34,55.31 330.59,48.52 335.68,43.64"/>
        <lane id="165398142_1769478599_1769478609_1" index="1" speed="13.89" length="45.88" shape="323.67,87.74 331.42,56.20 333.38,50.28 337.89,45.95"/>
    </edge>
    <edge id="165398627_904994118_1769478573" from="904994118" to="1769478573" priority="-1" shape="318.79,115.04 303.82,109.52 281.79,102.09 276.30,95.98">
        <lane id="165398627_904994118_1769478573_0" index="0" speed="13.89" length="29.35" shape="301.71,113.87 279.06,106.24 274.89,101.59"/>
        <lane id="165398627_904994118_1769478573_1" index="1" speed="13.89" length="29.35" shape="302.82,110.87 280.88,103.47 277.27,99.45"/>
    </edge>
    <edge id="242081426_1769478550_1769478532" from="1769478550" to="1769478532" priority="-1">
        <lane id="242081426_1769478550_1769478532_0" index="0" speed="13.89" length="2.38" shape="335.91,113.46 335.39,115.78"/>
        <lane id="242081426_1769478550_1769478532_1" index="1" speed="13.89" length="2.38" shape="332.78,112.76 332.27,115.09"/>
    </edge>
    <edge id="242081428_1769478599_1769478550" from="1769478599" to="1769478550" priority="-1">
        <lane id="242081428_1769478599_1769478550_0" index="0" speed="13.89" length="4.04" shape="326.06,101.36 329.96,102.42"/>
        <lane id="242081428_1769478599_1769478550_1" index="1" speed="13.89" length="4.04" shape="325.22,104.44 329.12,105.50"/>
    </edge>
    <edge id="84012991_1769478573_9067151913" from="1769478573" to="9067151913" priority="-1" shape="276.30,95.98 224.81,79.26 0.00,0.00">
        <lane id="84012991_1769478573_9067151913_0" index="0" speed="13.89" length="278.97" shape="261.87,96.34 223.27,83.81 -1.60,4.53"/>
        <lane id="84012991_1769478573_9067151913_1" index="1" speed="13.89" length="278.97" shape="262.85,93.30 224.30,80.78 -0.53,1.51"/>
    </edge>
    <edge id="84012991_9067151913_1769478573" from="9067151913" to="1769478573" priority="-1" shape="0.00,0.00 224.81,79.26 276.30,95.98">
        <lane id="84012991_9067151913_1769478573_0" index="0" speed="13.89" length="278.81" shape="1.60,-4.53 226.35,74.71 264.83,87.21"/>
        <lane id="84012991_9067151913_1769478573_1" index="1" speed="13.89" length="278.81" shape="0.53,-1.51 225.32,77.74 263.84,90.25"/>
    </edge>

    <tlLogic id="1769478532" type="static" programID="0" offset="0">
        <phase duration="42" state="GGGrrr"/>
        <phase duration="3"  state="yyyrrr"/>
        <phase duration="42" state="rrrGGG"/>
        <phase duration="3"  state="rrryyy"/>
    </tlLogic>
    <tlLogic id="1769478550" type="static" programID="0" offset="0">
        <phase duration="42" state="GGGrrr"/>
        <phase duration="3"  state="yyyrrr"/>
        <phase duration="42" state="rrrGGG"/>
        <phase duration="3"  state="rrryyy"/>
    </tlLogic>
    <tlLogic id="1769478599" type="static" programID="0" offset="0">
        <phase duration="42" state="GGGrrrr"/>
        <phase duration="3"  state="yyyrrrr"/>
        <phase duration="42" state="rrrGGGG"/>
        <phase duration="3"  state="rrryyyy"/>
    </tlLogic>
    <tlLogic id="321920939" type="static" programID="0" offset="0">
        <phase duration="82" state="G"/>
        <phase duration="3"  state="y"/>
        <phase duration="5"  state="r"/>
    </tlLogic>
    <tlLogic id="904994118" type="static" programID="0" offset="0">
        <phase duration="42" state="GGGGrrrrr"/>
        <phase duration="3"  state="yyyyrrrrr"/>
        <phase duration="42" state="rrrrGGGGG"/>
        <phase duration="3"  state="rrrryyyyy"/>
    </tlLogic>

    <junction id="1769478532" type="traffic_light" x="329.84" y="118.65" incLanes="165398117_1769478569_1769478532_0 165398117_1769478569_1769478532_1 165398117_1769478569_1769478532_2 242081426_1769478550_1769478532_0 242081426_1769478550_1769478532_1" intLanes=":1769478532_0_0 :1769478532_1_0 :1769478532_1_1 :1769478532_3_0 :1769478532_3_1 :1769478532_5_0" shape="337.75,131.39 340.78,122.28 338.21,120.89 337.41,119.95 336.93,118.84 336.78,117.57 336.95,116.13 330.71,114.74 329.80,116.78 329.11,117.36 328.25,117.66 327.22,117.68 326.04,117.41 324.05,123.49 326.35,125.17 326.98,126.53 327.28,128.24 327.25,130.31 326.87,132.73 333.13,134.05 334.01,132.02 334.70,131.43 335.55,131.13 336.57,131.12">
        <request index="0" response="000000" foes="011000" cont="0"/>
        <request index="1" response="000000" foes="111000" cont="0"/>
        <request index="2" response="000000" foes="111000" cont="0"/>
        <request index="3" response="000111" foes="000111" cont="0"/>
        <request index="4" response="000111" foes="000111" cont="0"/>
        <request index="5" response="000110" foes="000110" cont="0"/>
    </junction>
    <junction id="1769478550" type="traffic_light" x="332.20" y="108.00" incLanes="165398134_1769478609_1769478550_0 165398134_1769478609_1769478550_1 165398134_1769478609_1769478550_2 165398134_1769478609_1769478550_3 242081428_1769478599_1769478550_0 242081428_1769478599_1769478550_1" intLanes=":1769478550_0_0 :1769478550_1_0 :1769478550_1_1 :1769478550_3_0 :1769478550_3_1 :1769478550_5_0" shape="346.41,113.82 348.85,107.87 347.24,106.70 346.78,105.73 346.57,104.53 346.62,103.08 346.92,101.40 334.47,98.44 333.66,100.19 333.05,100.71 332.30,101.00 331.41,101.05 330.38,100.87 328.70,107.05 330.54,108.07 331.08,108.87 331.38,109.86 331.42,111.04 331.22,112.42 337.47,113.80 338.74,112.57 340.01,112.42 341.72,112.57 343.85,113.04">
        <request index="0" response="000000" foes="011000" cont="0"/>
        <request index="1" response="000000" foes="111000" cont="0"/>
        <request index="2" response="000000" foes="111000" cont="0"/>
        <request index="3" response="000111" foes="000111" cont="0"/>
        <request index="4" response="000111" foes="000111" cont="0"/>
        <request index="5" response="000110" foes="000110" cont="0"/>
    </junction>
    <junction id="1769478569" type="priority" x="413.75" y="141.93" incLanes="164603804_4386081499_1769478569_0 164603804_4386081499_1769478569_1 165398123_1769478550_1769478569_0 165398123_1769478550_1769478569_1" intLanes=":1769478569_0_0 :1769478569_0_1 :1769478569_0_2 :1769478569_6_0 :1769478569_4_0 :1769478569_4_1" shape="417.38,149.58 420.80,137.24 418.00,136.39 417.06,135.95 416.20,135.38 415.23,134.59 413.99,133.47 409.67,138.19 411.49,140.27 411.73,141.00 411.52,141.52 410.86,141.84 409.75,141.95 409.80,151.55 412.66,150.80 413.64,150.16 414.61,149.62 415.78,149.36">
        <request index="0" response="000000" foes="000000" cont="0"/>
        <request index="1" response="000000" foes="000000" cont="0"/>
        <request index="2" response="000000" foes="000000" cont="0"/>
        <request index="3" response="110000" foes="110000" cont="1"/>
        <request index="4" response="000000" foes="001000" cont="0"/>
        <request index="5" response="000000" foes="001000" cont="0"/>
    </junction>
    <junction id="1769478573" type="priority" x="276.30" y="95.98" incLanes="165398627_904994118_1769478573_0 165398627_904994118_1769478573_1 84012991_9067151913_1769478573_0 84012991_9067151913_1769478573_1" intLanes=":1769478573_0_0 :1769478573_0_1 :1769478573_9_0 :1769478573_10_0 :1769478573_4_0 :1769478573_4_1 :1769478573_4_2 :1769478573_4_3 :1769478573_11_0" shape="273.70,102.66 278.46,98.38 277.41,96.98 277.19,96.43 277.15,95.98 277.32,95.63 277.68,95.38 272.62,83.63 269.98,85.09 269.02,85.66 268.05,86.01 266.88,86.05 265.33,85.69 261.37,97.86 264.16,98.58 266.38,98.92 268.23,99.18 269.93,99.68 271.69,100.74">
        <request index="0" response="000000000" foes="100000000" cont="0"/>
        <request index="1" response="000000000" foes="100000000" cont="0"/>
        <request index="2" response="011110000" foes="011110000" cont="1"/>
        <request index="3" response="011110000" foes="011110000" cont="1"/>
        <request index="4" response="000000000" foes="000001100" cont="0"/>