<connections>
	<connection from="165398123_1769478550_1769478569" to="164603804_1769478569_4386081499" />
	<connection from="165398133_1769478596_904994118" to="165398627_904994118_1769478573" />
	<connection from="165398133_1769478596_904994118" to="165398114_904994118_1769478599" />
	<connection from="165398121_1769478573_1769478599" to="165398142_1769478599_1769478609" />
	<connection from="165398121_1769478573_1769478599" to="242081428_1769478599_1769478550" />
	<connection from="165398142_1769478599_1769478609" to="165398134_1769478609_1769478550" />
	<connection from="165398627_904994118_1769478573" to="165398121_1769478573_1769478599" />
	<connection from="165398627_904994118_1769478573" to="84012991_1769478573_9067151913" />
	<connection from="165398141_1769478596_321920939" to="165398141_321920939_1769478596" />
	<connection from="164603804_4386081499_1769478569" to="164603804_1769478569_4386081499" />
	<connection from="164603804_4386081499_1769478569" to="165398117_1769478569_1769478532" />
	<connection from="242081428_1769478599_1769478550" to="165398123_1769478550_1769478569" />
	<connection from="242081428_1769478599_1769478550" to="242081426_1769478550_1769478532" />
	<connection from="242081426_1769478550_1769478532" to="165398138_1769478532_904994118" />
	<connection from="242081426_1769478550_1769478532" to="165398127_1769478532_1769478596" />
	<connection from="165398138_1769478532_904994118" to="165398627_904994118_1769478573" />
	<connection from="165398138_1769478532_904994118" to="165398114_904994118_1769478599" />
	<connection from="165398141_321920939_1769478596" to="165398133_1769478596_904994118" />
	<connection from="165398141_321920939_1769478596" to="165398141_1769478596_321920939" />
	<connection from="165398117_1769478569_1769478532" to="165398138_1769478532_904994118" />
	<connection from="165398117_1769478569_1769478532" to="165398127_1769478532_1769478596" />
	<connection from="165398127_1769478532_1769478596" to="165398133_1769478596_904994118" />
	<connection from="165398127_1769478532_1769478596" to="165398141_1769478596_321920939" />
	<connection from="165398114_904994118_1769478599" to="165398142_1769478599_1769478609" />
	<connection from="165398114_904994118_1769478599" to="242081428_1769478599_1769478550" />
	<connection from="165398134_1769478609_1769478550" to="165398123_1769478550_1769478569" />
	<connection from="165398134_1769478609_1769478550" to="242081426_1769478550_1769478532" />
	<connection from="164603804_1769478569_4386081499" to="164603804_4386081499_1769478569" />
	<connection from="84012991_1769478573_9067151913" to="84012991_9067151913_1769478573" />
	<connection from="84012991_9067151913_1769478573" to="165398121_1769478573_1769478599" />
	<connection from="84012991_9067151913_1769478573" to="84012991_1769478573_9067151913" />
</connections>
