<edges>
	<edge id="29274686_321911772_321911731" from="321911772" to="321911731" numLanes="1" shape="670465.58,4868126.16,0.00 670450.95,4868111.69,0.00" speed="8.33" />
	<edge id="438878876_3245614624_3218421219" from="3245614624" to="3218421219" numLanes="1" shape="668877.56,4869669.66,0.00 668895.36,4869647.00,0.00 668920.45,4869625.74,0.00 668938.59,4869606.90,0.00 668959.98,4869579.11,0.00 668973.02,4869557.13,0.00 668981.29,4869520.01,0.00 668987.34,4869490.72,0.00 668988.52,4869460.93,0.00 668993.96,4869384.04,0.00" speed="8.33" />
	<edge id="476644006_4701437159_4152003840" from="4701437159" to="4152003840" numLanes="1" shape="669050.64,4869181.41,0.00 669051.28,4869188.75,0.00 669068.35,4869370.94,0.00" speed="8.33" />
	<edge id="122725833_671345660_1076434178" from="671345660" to="1076434178" numLanes="1" shape="671270.82,4868048.53,0.00 671260.67,4868049.35,0.00 671190.19,4868045.79,0.00 671168.76,4868042.34,0.00 671147.65,4868036.79,0.00 671124.24,4868028.38,0.00 671107.23,4868022.65,0.00" speed="13.89" />
	<edge id="1233932319_8177214328_287484083" from="8177214328" to="287484083" numLanes="3" shape="668838.83,4868248.71,0.00 668832.26,4868260.19,0.00" speed="16.67" />
	<edge id="553376776_5341780969_5341780983" from="5341780969" to="5341780983" numLanes="1" shape="668236.69,4869400.89,0.00 668178.76,4869401.14,0.00" speed="8.33" />
	<edge id="34192538_392164946_392162554" from="392164946" to="392162554" numLanes="1" shape="670933.30,4868154.18,0.00 670960.11,4868080.96,0.00 670960.59,4868075.68,0.00 670959.67,4868070.69,0.00 670955.92,4868066.28,0.00 670799.99,4868011.65,0.00" speed="8.33" />
	<edge id="29274720_321912009_321912010" from="321912009" to="321912010" numLanes="1" shape="670099.95,4868667.48,0.00 670103.05,4868658.67,0.00 670173.28,4868457.64,0.00 670176.32,4868448.94,0.00" speed="8.33" />
	<edge id="34196091_597508700_597508699" from="597508700" to="597508699" numLanes="1" shape="669959.66,4869130.05,0.00 669964.54,4869114.90,0.00 669988.96,4869044.99,0.00 669991.33,4869038.18,0.00" speed="8.33" />
	<edge id="292381078_1076441819_1803268962" from="1076441819" to="1803268962" numLanes="1" shape="669096.65,4868872.59,0.00 669091.76,4868877.91,0.00 669087.52,4868883.60,0.00 669085.85,4868886.51,0.00 669079.62,4868897.35,0.00" speed="8.33" />
	<edge id="122733322_327281684_327281680" from="327281684" to="327281680" numLanes="1" shape="669251.42,4868022.95,0.00 669259.40,4868030.24,0.00 669261.94,4868034.80,0.00 669262.46,4868040.20,0.00 669239.01,4868106.93,0.00 669236.37,4868114.63,0.00" speed="8.33" />
	<edge id="92829623_1076441740_1076441847" from="1076441740" to="1076441847" numLanes="1" shape="668949.78,4868533.80,0.00 668950.17,4868526.40,0.00 668951.31,4868523.14,0.00 668955.51,4868516.95,0.00" speed="8.33" />
	<edge id="878992795_392163204_1076440554" from="392163204" to="1076440554" numLanes="3" shape="668684.41,4868209.38,0.00 668559.65,4868166.84,0.00 668544.54,4868162.34,0.00" speed="13.89" />
	<edge id="378140862_321874320_392169129" from="321874320" to="392169129" numLanes="1" shape="670681.66,4867877.86,0.00 670678.61,4867886.36,0.00 670580.67,4868159.68,0.00 670574.89,4868175.20,0.00" speed="16.67" />
	<edge id="92826457_1076434178_7857708738" from="1076434178" to="7857708738" numLanes="1" shape="671107.23,4868022.65,0.00 671103.71,4868032.06,0.00 671066.42,4868138.10,0.00 671066.45,4868144.00,0.00 671068.97,4868149.53,0.00 671073.35,4868153.56,0.00 671101.74,4868164.30,0.00 671111.27,4868166.47,0.00 671120.61,4868167.28,0.00" speed="8.33" />
	<edge id="92829623_1076441910_1076441767" from="1076441910" to="1076441767" numLanes="1" shape="668961.76,4868514.07,0.00 668965.28,4868514.25,0.00 668970.67,4868515.12,0.00 668973.54,4868516.44,0.00" speed="8.33" />
	<edge id="92829689_2281049612_1076441757" from="2281049612" to="1076441757" numLanes="1" shape="669151.65,4868598.94,0.00 669140.63,4868591.79,0.00 669128.74,4868584.83,0.00 669113.85,4868578.02,0.00 669097.84,4868572.03,0.00 669092.09,4868569.74,0.00" speed="8.33" />
	<edge id="92829643_1076441852_1803268926" from="1076441852" to="1803268926" numLanes="1" shape="669029.00,4869140.15,0.00 669030.25,4869136.45,0.00 669032.23,4869133.12,0.00 669034.84,4869130.29,0.00" speed="13.89" />
	<edge id="92829685_1076441842_9104563469" from="1076441842" to="9104563469" numLanes="1" shape="669004.64,4869151.69,0.00 668902.51,4869161.20,0.00 668862.20,4869167.95,0.00 668800.82,4869181.94,0.00 668773.26,4869187.38,0.00" speed="13.89" />
	<edge id="29274686_321911731_321911772" from="321911731" to="321911772" numLanes="1" shape="670450.95,4868111.69,0.00 670465.58,4868126.16,0.00" speed="8.33" />
	<edge id="118114902_316502311_316500997" from="316502311" to="316500997" numLanes="1" shape="671149.65,4869025.12,0.00 671102.30,4869010.28,0.00 670976.10,4868964.30,0.00 670906.81,4868939.06,0.00 670767.57,4868892.00,0.00 670755.81,4868888.36,0.00 670647.99,4868853.16,0.00 670386.26,4868767.57,0.00 670369.84,4868761.66,0.00" speed="13.89" />
	<edge id="541860079_5239244233_5239244226" from="5239244233" to="5239244226" numLanes="1" shape="668384.00,4869357.86,0.00 668370.39,4869397.26,0.00" speed="8.33" />
	<edge id="500682236_1285490480_392169272" from="1285490480" to="392169272" numLanes="1" shape="670266.25,4868957.62,0.00 670255.81,4868952.66,0.00 670213.85,4868938.38,0.00 670206.07,4868935.72,0.00" speed="8.33" />
	<edge id="984789184_9104576054_4262547160" from="9104576054" to="4262547160" numLanes="2" shape="668033.41,4868972.85,0.00 668006.45,4868962.47,0.00 667996.81,4868960.94,0.00 667979.82,4868960.25,0.00" speed="13.89" />
	<edge id="460693479_10253189231_4262548206" from="10253189231" to="4262548206" numLanes="1" shape="668284.10,4869282.97,0.00 668285.92,4869322.95,0.00 668286.07,4869352.98,0.00" speed="8.33" />
	<edge id="29958612_4563096511_329888258" from="4563096511" to="329888258" numLanes="1" shape="669260.65,4867552.70,0.00 669246.59,4867539.75,0.00 669190.40,4867487.95,0.00 669179.32,4867476.16,0.00 669169.90,4867466.13,0.00" speed="8.33" />
	<edge id="92829685_9104563469_1076441842" from="9104563469" to="1076441842" numLanes="1" shape="668773.26,4869187.38,0.00 668800.82,4869181.94,0.00 668862.20,4869167.95,0.00 668902.51,4869161.20,0.00 669004.64,4869151.69,0.00" speed="13.89" />
	<edge id="500683000_2270006946_321912010" from="2270006946" to="321912010" numLanes="1" shape="670031.79,4868598.73,0.00 670086.12,4868432.81,0.00 670088.52,4868429.04,0.00 670091.58,4868425.83,0.00 670096.58,4868424.02,0.00 670103.67,4868424.31,0.00 670167.96,4868446.10,0.00 670176.32,4868448.94,0.00" speed="8.33" />
	<edge id="92829632_1076441805_1076441835" from="1076441805" to="1076441835" numLanes="1" shape="668804.91,4868988.55,0.00 668836.00,4868999.59,0.00 668844.48,4869001.70,0.00 668853.13,4869003.51,0.00 668861.78,4869003.88,0.00 668872.99,4869003.55,0.00 668920.52,4868999.42,0.00 668970.79,4868995.66,0.00" speed="8.33" />
	<edge id="200084457_1076441878_1076441810" from="1076441878" to="1076441810" numLanes="1" shape="669383.81,4869108.59,0.00 669328.93,4869116.65,0.00 669213.95,4869127.74,0.00 669189.75,4869130.23,0.00 669092.24,4869139.31,0.00" speed="13.89" />
	<edge id="427007036_5318515226_5318515228" from="5318515226" to="5318515228" numLanes="1" shape="668325.16,4869065.81,0.00 668341.36,4869070.51,0.00 668374.05,4869080.35,0.00 668421.06,4869094.64,0.00 668459.47,4869108.49,0.00" speed="13.89" />
	<edge id="29709386_327281680_327281016" from="327281680" to="327281016" numLanes="1" shape="669236.37,4868114.63,0.00 669177.88,4868083.67,0.00 669170.58,4868083.33,0.00 669164.25,4868087.04,0.00 669091.75,4868200.83,0.00 669087.11,4868208.76,0.00 669082.41,4868220.37,0.00 669067.38,4868265.25,0.00" speed="8.33" />
	<edge id="146418413_11690274876_329890642" from="11690274876" to="329890642" numLanes="2" shape="669242.05,4867865.15,0.00 669252.15,4867856.54,0.00" speed="16.67" />
	<edge id="553376776_5341780969_5341780970" from="5341780969" to="5341780970" numLanes="1" shape="668236.69,4869400.89,0.00 668214.59,4869477.15,0.00" speed="8.33" />
	<edge id="1257368529_11690274873_309716487" from="11690274873" to="309716487" numLanes="2" shape="669132.17,4867958.86,0.00 669128.42,4867962.13,0.00" speed="16.67" />
	<edge id="242076782_1076441731_3842071961" from="1076441731" to="3842071961" numLanes="1" shape="669074.21,4868864.52,0.00 669067.75,4868858.85,0.00 669061.99,4868855.94,0.00 669048.93,4868849.34,0.00" speed="8.33" />
	<edge id="92829678_1805669510_1076441805" from="1805669510" to="1076441805" numLanes="1" shape="668898.66,4868927.50,0.00 668831.27,4868934.02,0.00 668826.83,4868934.95,0.00 668823.16,4868938.11,0.00 668820.42,4868943.08,0.00 668804.91,4868988.55,0.00" speed="8.33" />
	<edge id="179162398_1789086077_8669461480" from="1789086077" to="8669461480" numLanes="3" shape="668622.04,4868824.00,0.00 668588.32,4868919.91,0.00" speed="16.67" />
	<edge id="29959621_329888258_329888485" from="329888258" to="329888485" numLanes="1" shape="669169.90,4867466.13,0.00 669126.80,4867495.25,0.00 669100.45,4867560.19,0.00" speed="8.33" />
	<edge id="92829637_1803285662_1076441753" from="1803285662" to="1076441753" numLanes="1" shape="668896.98,4868731.44,0.00 668893.87,4868740.38,0.00" speed="8.33" />
	<edge id="29274703_321911772_321911775" from="321911772" to="321911775" numLanes="1" shape="670465.58,4868126.16,0.00 670471.76,4868116.82,0.00 670484.12,4868100.18,0.00 670488.44,4868091.91,0.00 670499.18,4868061.45,0.00" speed="8.33" />
	<edge id="92826389_1076433625_1076433630" from="1076433625" to="1076433630" numLanes="1" shape="671077.11,4867747.72,0.00 671076.82,4867758.82,0.00 671070.74,4867776.45,0.00 671055.24,4867817.17,0.00" speed="8.33" />
	<edge id="1174961972_9104576048_10917809123" from="9104576048" to="10917809123" numLanes="3" shape="668527.30,4869144.26,0.00 668514.08,4869139.57,0.00" speed="13.89" />
	<edge id="167479920_1788713139_1788713142" from="1788713139" to="1788713142" numLanes="1" shape="669083.55,4868566.94,0.00 669098.00,4868532.33,0.00 669108.48,4868501.26,0.00 669110.60,4868494.02,0.00" speed="8.33" />
	<edge id="553376699_5318515227_9104576057" from="5318515227" to="9104576057" numLanes="2" shape="668458.09,4869120.69,0.00 668350.33,4869087.45,0.00 668335.33,4869082.82,0.00" speed="13.89" />
	<edge id="92829697_1076441910_1076441864" from="1076441910" to="1076441864" numLanes="1" shape="668961.76,4868514.07,0.00 668970.06,4868497.62,0.00" speed="8.33" />
	<edge id="92829645_1076441895_1076441725" from="1076441895" to="1076441725" numLanes="1" shape="669132.39,4869046.57,0.00 669135.10,4869049.35,0.00 669138.55,4869050.71,0.00 669142.49,4869050.79,0.00 669162.22,4869047.84,0.00 669176.46,4869044.02,0.00 669233.85,4869023.83,0.00 669235.77,4869022.42,0.00 669240.04,4869018.19,0.00 669242.27,4869013.58,0.00 669256.10,4868956.38,0.00" speed="8.33" />
	<edge id="466711838_1076441726_1076441871" from="1076441726" to="1076441871" numLanes="1" shape="669064.64,4869150.09,0.00 669062.97,4869153.67,0.00 669059.91,4869157.48,0.00 669056.78,4869159.89,0.00" speed="13.89" />
	<edge id="92829626_1803268931_1076441759" from="1803268931" to="1076441759" numLanes="1" shape="669249.88,4868675.93,0.00 669207.89,4868738.71,0.00 669202.66,4868749.52,0.00 669196.40,4868767.17,0.00 669193.31,4868779.19,0.00 669192.50,4868784.74,0.00 669193.02,4868790.38,0.00 669195.07,4868794.63,0.00 669199.45,4868798.08,0.00 669204.87,4868799.35,0.00 669211.65,4868799.02,0.00 669262.43,4868795.68,0.00" speed="8.33" />
	<edge id="118114903_316500997_321912009" from="316500997" to="321912009" numLanes="1" shape="670369.84,4868761.66,0.00 670360.93,4868758.41,0.00 670294.26,4868734.06,0.00 670178.13,4868694.42,0.00 670108.32,4868670.37,0.00 670099.95,4868667.48,0.00" speed="13.89" />
	<edge id="541860071_5239241518_5239241517" from="5239241518" to="5239241517" numLanes="1" shape="668329.66,4869167.53,0.00 668435.28,4869203.50,0.00" speed="8.33" />
	<edge id="92829931_1076443458_1076443442" from="1076443458" to="1076443442" numLanes="1" shape="669578.97,4869170.29,0.00 669580.13,4869178.01,0.00 669591.29,4869252.36,0.00" speed="8.33" />
	<edge id="29709360_327279740_327279585" from="327279740" to="327279585" numLanes="1" shape="669360.19,4867757.90,0.00 669370.91,4867765.89,0.00 669373.36,4867767.61,0.00 669459.83,4867844.31,0.00 669464.39,4867848.35,0.00" speed="8.33" />
	<edge id="92829696_1803285771_1076441774" from="1803285771" to="1076441774" numLanes="1" shape="668819.16,4868721.11,0.00 668817.38,4868730.05,0.00" speed="8.33" />
	<edge id="138505548_1076441796_1518721127" from="1076441796" to="1518721127" numLanes="1" shape="668978.11,4868451.14,0.00 668862.78,4868415.17,0.00 668857.98,4868412.90,0.00 668853.98,4868408.84,0.00 668852.40,4868404.35,0.00 668852.69,4868399.33,0.00 668863.82,4868372.47,0.00" speed="8.33" />
	<edge id="242076776_2496266425_2496266424" from="2496266425" to="2496266424" numLanes="1" shape="668900.67,4868849.01,0.00 668891.60,4868850.07,0.00" speed="8.33" />
	<edge id="603001591_327280575_1788713148" from="327280575" to="1788713148" numLanes="1" shape="669049.97,4868320.09,0.00 669197.77,4868366.48,0.00 669259.86,4868385.08,0.00 669276.75,4868391.76,0.00 669285.22,4868394.49,0.00" speed="13.89" />
	<edge id="541860078_4262548206_5239244237" from="4262548206" to="5239244237" numLanes="1" shape="668286.07,4869352.98,0.00 668325.47,4869347.79,0.00" speed="8.33" />
	<edge id="878983109_8177129180_8177129183" from="8177129180" to="8177129183" numLanes="4" shape="668756.98,4868402.81,0.00 668772.58,4868356.95,0.00 668796.77,4868295.68,0.00" speed="16.67" />
	<edge id="92826388_1076433630_1076433604" from="1076433630" to="1076433604" numLanes="1" shape="671055.24,4867817.17,0.00 670900.81,4867764.28,0.00" speed="8.33" />
	<edge id="1174961981_10917809119_1076441792" from="10917809119" to="1076441792" numLanes="1" shape="668506.86,4869137.01,0.00 668518.10,4869127.65,0.00" speed="13.89" />
	<edge id="1174961952_10917809117_10917809119" from="10917809117" to="10917809119" numLanes="1" shape="668462.20,4869245.00,0.00 668474.64,4869226.96,0.00 668483.01,4869204.41,0.00 668503.47,4869146.60,0.00 668506.86,4869137.01,0.00" speed="13.89" />
	<edge id="703521018_5239244237_5239244233" from="5239244237" to="5239244233" numLanes="1" shape="668325.47,4869347.79,0.00 668349.87,4869345.40,0.00 668384.00,4869357.86,0.00" speed="8.33" />
	<edge id="984789747_2627890467_1076441915" from="2627890467" to="1076441915" numLanes="1" shape="668756.29,4869190.72,0.00 668738.21,4869192.76,0.00" speed="13.89" />
	<edge id="414001597_4739165325_4427096200" from="4739165325" to="4427096200" numLanes="1" shape="669146.68,4869814.61,0.00 669149.28,4869806.70,0.00 669151.20,4869800.30,0.00 669162.44,4869766.80,0.00 669166.77,4869749.44,0.00 669167.42,4869740.58,0.00 669168.85,4869727.74,0.00 669170.12,4869716.35,0.00 669171.23,4869695.24,0.00 669171.34,4869670.86,0.00 669168.72,4869651.14,0.00 669165.83,4869637.03,0.00 669165.08,4869633.33,0.00 669153.63,4869591.80,0.00" speed="8.33" />
	<edge id="935524252_8177214319_8669461481" from="8177214319" to="8669461481" numLanes="3" shape="668428.18,4868109.12,0.00 668464.36,4868122.18,0.00" speed="13.89" />
	<edge id="34194812_1076433412_392167281" from="1076433412" to="392167281" numLanes="1" shape="670689.03,4868324.77,0.00 670719.70,4868239.13,0.00" speed="8.33" />
	<edge id="92826351_1076433422_1076433370" from="1076433422" to="1076433370" numLanes="1" shape="670937.02,4868521.76,0.00 670989.93,4868542.37,0.00 670996.35,4868542.53,0.00" speed="8.33" />
	<edge id="984789747_9104563469_2627890467" from="9104563469" to="2627890467" numLanes="1" shape="668773.26,4869187.38,0.00 668756.29,4869190.72,0.00" speed="13.89" />
	<edge id="988997115_9136453837_1076440632" from="9136453837" to="1076440632" numLanes="2" shape="668956.84,4868113.04,0.00 668966.89,4868103.82,0.00" speed="16.67" />
	<edge id="92829671_1076441740_1076441722" from="1076441740" to="1076441722" numLanes="1" shape="668949.78,4868533.80,0.00 668941.60,4868525.54,0.00 668928.44,4868515.97,0.00" speed="8.33" />
	<edge id="242076780_2496266425_1076441795" from="2496266425" to="1076441795" numLanes="1" shape="668900.67,4868849.01,0.00 668901.64,4868858.86,0.00 668907.22,4868916.92,0.00 668908.16,4868926.67,0.00" speed="8.33" />
	<edge id="29709349_327279585_327279580" from="327279585" to="327279580" numLanes="1" shape="669464.39,4867848.35,0.00 669457.29,4867864.37,0.00 669435.61,4867924.20,0.00 669433.15,4867930.96,0.00" speed="8.33" />
	<edge id="1174961982_10917809119_10917809124" from="10917809119" to="10917809124" numLanes="2" shape="668506.86,4869137.01,0.00 668498.31,4869133.98,0.00" speed="13.89" />
	<edge id="427007043_4262548189_4262548190" from="4262548189" to="4262548190" numLanes="1" shape="667847.10,4869181.42,0.00 667845.49,4869176.49,0.00 667846.19,4869171.36,0.00 667849.05,4869167.03,0.00 667853.52,4869164.37,0.00 667858.69,4869163.91,0.00 667863.57,4869165.72,0.00 667867.16,4869169.47,0.00 667868.77,4869174.39,0.00 667868.07,4869179.53,0.00 667865.21,4869183.86,0.00" speed="8.33" />
	<edge id="703521019_5239244223_5239244239" from="5239244223" to="5239244239" numLanes="1" shape="668321.02,4869276.50,0.00 668318.41,4869244.39,0.00 668318.35,4869221.43,0.00" speed="8.33" />
	<edge id="703521019_5239244223_5239244237" from="5239244223" to="5239244237" numLanes="1" shape="668321.02,4869276.50,0.00 668325.47,4869347.79,0.00" speed="8.33" />
	<edge id="476644028_1076441686_1285503476" from="1076441686" to="1285503476" numLanes="1" shape="669040.63,4869107.64,0.00 669044.43,4869112.96,0.00 669047.53,4869117.97,0.00 669049.87,4869121.41,0.00 669052.02,4869123.99,0.00 669054.31,4869127.14,0.00" speed="8.33" />
	<edge id="92829687_1076441809_1076441913" from="1076441809" to="1076441913" numLanes="1" shape="669247.26,4868883.46,0.00 669245.47,4868878.55,0.00 669245.38,4868873.85,0.00 669248.11,4868867.11,0.00" speed="8.33" />
	<edge id="29959621_329888485_329888276" from="329888485" to="329888276" numLanes="1" shape="669100.45,4867560.19,0.00 669047.53,4867711.65,0.00 669043.65,4867728.03,0.00 669044.90,4867736.99,0.00 669051.83,4867744.91,0.00 669121.00,4867765.07,0.00 669129.45,4867765.42,0.00 669135.80,4867759.69,0.00 669151.86,4867728.74,0.00 669161.80,4867717.31,0.00 669225.27,4867678.62,0.00 669290.92,4867617.48,0.00 669309.76,4867601.03,0.00" speed="8.33" />
	<edge id="445253909_4427096207_4427096206" from="4427096207" to="4427096206" numLanes="1" shape="669220.15,4869393.81,0.00 669262.45,4869433.08,0.00 669316.09,4869538.45,0.00 669314.27,4869551.96,0.00 669307.28,4869559.55,0.00 669233.41,4869568.35,0.00" speed="8.33" />
	<edge id="92829929_1076443481_597508700" from="1076443481" to="597508700" numLanes="1" shape="669789.05,4869071.53,0.00 669796.25,4869073.25,0.00 669822.71,4869079.53,0.00 669867.32,4869094.62,0.00 669915.08,4869113.23,0.00 669952.14,4869127.21,0.00 669959.66,4869130.05,0.00" speed="13.89" />
	<edge id="1233932320_8177214329_8177214328" from="8177214329" to="8177214328" numLanes="2" shape="668827.31,4868245.08,0.00 668838.83,4868248.71,0.00" speed="13.89" />
	<edge id="146418413_327279740_329890642" from="327279740" to="329890642" numLanes="2" shape="669360.19,4867757.90,0.00 669324.68,4867790.38,0.00 669304.97,4867808.41,0.00 669280.14,4867831.12,0.00 669252.15,4867856.54,0.00" speed="16.67" />
	<edge id="146418413_4306882093_327279429" from="4306882093" to="327279429" numLanes="2" shape="669629.50,4867512.58,0.00 669614.50,4867527.00,0.00 669578.91,4867560.03,0.00 669546.58,4867589.66,0.00 669543.88,4867592.13,0.00 669516.79,4867616.14,0.00 669492.81,4867636.03,0.00 669488.15,4867639.90,0.00" speed="16.67" />
	<edge id="29274703_321911775_1376841315" from="321911775" to="1376841315" numLanes="1" shape="670499.18,4868061.45,0.00 670529.99,4867976.16,0.00 670565.79,4867889.73,0.00 670568.52,4867885.06,0.00 670571.73,4867880.80,0.00 670605.05,4867852.71,0.00 670610.22,4867850.15,0.00 670616.20,4867850.50,0.00 670648.99,4867862.34,0.00" speed="8.33" />
	<edge id="503282838_4306881785_10301314594" from="4306881785" to="10301314594" numLanes="2" shape="669687.26,4867456.87,0.00 669744.18,4867401.76,0.00 669748.05,4867398.02,0.00 669843.74,4867310.19,0.00" speed="16.67" />
	<edge id="92826356_1076433360_1076433396" from="1076433360" to="1076433396" numLanes="1" shape="670658.51,4868478.62,0.00 670648.58,4868481.38,0.00 670605.92,4868493.20,0.00 670602.39,4868493.40,0.00 670600.69,4868493.50,0.00 670595.07,4868492.79,0.00 670557.13,4868480.08,0.00" speed="8.33" />
	<edge id="169399492_1076441837_1805669506" from="1076441837" to="1805669506" numLanes="1" shape="668763.80,4868860.72,0.00 668754.10,4868859.94,0.00" speed="8.33" />
	<edge id="92829660_1076441757_1788713139" from="1076441757" to="1788713139" numLanes="1" shape="669092.09,4868569.74,0.00 669083.55,4868566.94,0.00" speed="8.33" />
	<edge id="553379345_5341802232_8177214336" from="5341802232" to="8177214336" numLanes="2" shape="668076.75,4867889.25,0.00 668048.73,4867965.23,0.00 668047.81,4867967.71,0.00 668046.67,4867970.82,0.00 668043.81,4867978.56,0.00" speed="13.89" />
	<edge id="92829625_1076441788_2496386291" from="1076441788" to="2496386291" numLanes="1" shape="668891.73,4868504.74,0.00 668857.28,4868605.18,0.00 668853.45,4868608.74,0.00 668848.00,4868610.32,0.00 668842.66,4868610.52,0.00 668799.88,4868595.61,0.00 668793.80,4868593.15,0.00 668790.32,4868589.24,0.00 668788.80,4868584.28,0.00" speed="8.33" />
	<edge id="431478630_4306882089_4306881785" from="4306882089" to="4306881785" numLanes="2" shape="669654.43,4867478.08,0.00 669665.19,4867468.74,0.00 669678.17,4867457.47,0.00 669687.26,4867456.87,0.00" speed="16.67" />
	<edge id="603001592_1803268889_1803268861" from="1803268889" to="1803268861" numLanes="1" shape="669093.47,4868873.72,0.00 669086.20,4868873.76,0.00 669080.30,4868871.53,0.00 669077.41,4868869.32,0.00" speed="8.33" />
	<edge id="92826358_1076433396_1076433365" from="1076433396" to="1076433365" numLanes="1" shape="670557.13,4868480.08,0.00 670508.23,4868464.51,0.00 670503.09,4868462.40,0.00 670499.65,4868458.95,0.00 670498.06,4868453.66,0.00 670498.94,4868448.48,0.00 670535.28,4868344.60,0.00" speed="8.33" />
	<edge id="427007042_4262548196_4262547180" from="4262548196" to="4262547180" numLanes="1" shape="668079.36,4869230.37,0.00 668023.64,4869202.77,0.00 668017.37,4869195.32,0.00 668014.65,4869183.66,0.00 668019.35,4869168.33,0.00 668037.76,4869120.64,0.00" speed="8.33" />
	<edge id="1093042890_597508713_321928363" from="597508713" to="321928363" numLanes="1" shape="670217.35,4869225.25,0.00 670315.40,4868946.04,0.00 670340.36,4868874.96,0.00" speed="13.89" />
	<edge id="427007031_4262548198_4262548204" from="4262548198" to="4262548204" numLanes="1" shape="667910.66,4869275.31,0.00 667887.53,4869347.83,0.00" speed="8.33" />
	<edge id="703521019_5239244242_5239241518" from="5239244242" to="5239241518" numLanes="1" shape="668344.60,4869120.58,0.00 668329.66,4869167.53,0.00" speed="8.33" />
	<edge id="92829649_1076441884_1076441683" from="1076441884" to="1076441683" numLanes="1" shape="668967.27,4868545.91,0.00 668960.72,4868556.73,0.00 668955.78,4868562.80,0.00" speed="8.33" />
	<edge id="984789186_5318515228_9104576051" from="5318515228" to="9104576051" numLanes="4" shape="668459.47,4869108.49,0.00 668494.86,4869119.59,0.00" speed="13.89" />
	<edge id="200084457_1076441810_1076441878" from="1076441810" to="1076441878" numLanes="1" shape="669092.24,4869139.31,0.00 669189.75,4869130.23,0.00 669213.95,4869127.74,0.00 669328.93,4869116.65,0.00 669383.81,4869108.59,0.00" speed="13.89" />
	<edge id="92829917_1076443448_1076443442" from="1076443448" to="1076443442" numLanes="1" shape="669722.21,4869277.82,0.00 669719.33,4869285.86,0.00 669685.11,4869381.16,0.00 669682.88,4869384.32,0.00 669679.17,4869386.37,0.00 669675.80,4869387.33,0.00 669669.34,4869386.61,0.00 669664.14,4869383.98,0.00 669651.65,4869376.23,0.00 669616.27,4869352.29,0.00 669607.27,4869347.76,0.00 669595.18,4869342.98,0.00 669581.30,4869338.27,0.00 669576.09,4869335.64,0.00 669573.77,4869333.32,0.00 669572.08,4869329.92,0.00 669572.04,4869325.07,0.00 669583.36,4869292.94,0.00 669587.12,4869280.80,0.00 669590.56,4869263.93,0.00 669590.81,4869260.03,0.00 669591.29,4869252.36,0.00" speed="8.33" />
	<edge id="92829415_8177214329_9136453837" from="8177214329" to="9136453837" numLanes="2" shape="668827.31,4868245.08,0.00 668831.28,4868238.51,0.00 668835.35,4868232.65,0.00 668853.96,4868210.05,0.00 668869.34,4868192.27,0.00 668884.70,4868176.98,0.00 668899.26,4868163.98,0.00 668921.77,4868144.00,0.00 668944.93,4868123.46,0.00 668956.84,4868113.04,0.00" speed="16.67" />
	<edge id="92829632_1076441835_1076441805" from="1076441835" to="1076441805" numLanes="1" shape="668970.79,4868995.66,0.00 668920.52,4868999.42,0.00 668872.99,4869003.55,0.00 668861.78,4869003.88,0.00 668853.13,4869003.51,0.00 668844.48,4869001.70,0.00 668836.00,4868999.59,0.00 668804.91,4868988.55,0.00" speed="8.33" />
	<edge id="1174961992_10917809137_1076441626" from="10917809137" to="1076441626" numLanes="2" shape="668680.80,4868651.56,0.00 668678.87,4868656.57,0.00 668676.93,4868661.58,0.00" speed="16.67" />
	<edge id="1174961979_10917809124_10917809125" from="10917809124" to="10917809125" numLanes="2" shape="668498.31,4869133.98,0.00 668502.27,4869122.16,0.00" speed="16.67" />
	<edge id="29276254_392167050_392173496" from="392167050" to="392173496" numLanes="1" shape="670126.24,4868907.70,0.00 670046.64,4868879.48,0.00" speed="8.33" />
	<edge id="92829922_1076443494_392172991" from="1076443494" to="392172991" numLanes="1" shape="670106.84,4869226.97,0.00 670116.28,4869200.64,0.00 670120.09,4869189.11,0.00" speed="8.33" />
	<edge id="92826389_1076433630_1076433625" from="1076433630" to="1076433625" numLanes="1" shape="671055.24,4867817.17,0.00 671070.74,4867776.45,0.00 671076.82,4867758.82,0.00 671077.11,4867747.72,0.00" speed="8.33" />
	<edge id="541860079_5239244225_5239244237" from="5239244225" to="5239244237" numLanes="1" shape="668326.38,4869383.03,0.00 668327.92,4869378.54,0.00 668325.47,4869347.79,0.00" speed="8.33" />
	<edge id="92829411_1076440632_1076440500" from="1076440632" to="1076440500" numLanes="2" shape="668966.89,4868103.82,0.00 668981.61,4868090.57,0.00" speed="16.67" />
	<edge id="427007031_4262547177_4262548193" from="4262547177" to="4262548193" numLanes="1" shape="667942.26,4869097.58,0.00 667935.93,4869133.71,0.00 667924.85,4869196.85,0.00" speed="8.33" />
	<edge id="138505544_1076441862_1518721127" from="1076441862" to="1518721127" numLanes="1" shape="668992.18,4868380.89,0.00 668988.11,4868378.22,0.00 668893.90,4868348.13,0.00 668885.95,4868345.59,0.00 668881.18,4868345.46,0.00 668876.44,4868347.70,0.00 668872.84,4868352.17,0.00 668863.82,4868372.47,0.00" speed="8.33" />
	<edge id="92829626_1076441759_1076441866" from="1076441759" to="1076441866" numLanes="1" shape="669262.43,4868795.68,0.00 669261.80,4868803.06,0.00 669261.07,4868809.28,0.00 669260.48,4868837.06,0.00" speed="8.33" />
	<edge id="92829637_1803285662_1076441683" from="1803285662" to="1076441683" numLanes="1" shape="668896.98,4868731.44,0.00 668955.78,4868562.80,0.00" speed="8.33" />
	<edge id="92829625_2496386291_1076441788" from="2496386291" to="1076441788" numLanes="1" shape="668788.80,4868584.28,0.00 668790.32,4868589.24,0.00 668793.80,4868593.15,0.00 668799.88,4868595.61,0.00 668842.66,4868610.52,0.00 668848.00,4868610.32,0.00 668853.45,4868608.74,0.00 668857.28,4868605.18,0.00 668891.73,4868504.74,0.00" speed="8.33" />
	<edge id="777893922_1076440495_8177214326" from="1076440495" to="8177214326" numLanes="1" shape="668864.15,4868218.34,0.00 668860.14,4868231.87,0.00 668858.78,4868240.14,0.00 668858.87,4868246.34,0.00 668859.00,4868248.51,0.00 668861.45,4868253.84,0.00 668868.27,4868258.54,0.00" speed="11.11" />
	<edge id="438879849_4365283921_2627890470" from="4365283921" to="2627890470" numLanes="1" shape="668744.19,4869453.30,0.00 668754.74,4869435.78,0.00 668766.87,4869410.55,0.00" speed="8.33" />
	<edge id="765757496_7151783431_1285490480" from="7151783431" to="1285490480" numLanes="1" shape="670283.71,4868954.88,0.00 670279.30,4868952.74,0.00 670274.39,4868952.50,0.00 670269.79,4868954.23,0.00 670266.25,4868957.62,0.00" speed="8.33" />
	<edge id="92826357_1076433413_1076433364" from="1076433413" to="1076433364" numLanes="1" shape="670757.80,4868599.65,0.00 670766.75,4868595.00,0.00 670773.20,4868590.73,0.00 670777.70,4868586.32,0.00 670781.09,4868580.19,0.00 670785.64,4868570.65,0.00 670788.80,4868561.65,0.00 670791.46,4868554.06,0.00" speed="8.33" />
	<edge id="503282838_4936219149_10301314594" from="4936219149" to="10301314594" numLanes="2" shape="669887.29,4867270.22,0.00 669843.74,4867310.19,0.00" speed="16.67" />
	<edge id="92826388_1076433604_1076433630" from="1076433604" to="1076433630" numLanes="1" shape="670900.81,4867764.28,0.00 671055.24,4867817.17,0.00" speed="8.33" />
	<edge id="427007039_4262547180_4262547177" from="4262547180" to="4262547177" numLanes="1" shape="668037.76,4869120.64,0.00 667983.56,4869102.18,0.00 667942.26,4869097.58,0.00" speed="8.33" />
	<edge id="431458221_329882422_4306882089" from="329882422" to="4306882089" numLanes="2" shape="669620.90,4867437.65,0.00 669649.96,4867472.30,0.00 669654.43,4867478.08,0.00" speed="8.33" />
	<edge id="29274720_321911990_321911734" from="321911990" to="321911734" numLanes="1" shape="670140.13,4868282.33,0.00 670184.25,4868160.19,0.00 670212.26,4868098.47,0.00 670229.43,4868035.80,0.00 670239.34,4868005.86,0.00 670256.45,4867957.67,0.00 670281.50,4867888.50,0.00 670286.02,4867883.68,0.00 670292.84,4867882.50,0.00 670353.88,4867905.27,0.00 670358.08,4867910.09,0.00 670358.91,4867918.10,0.00 670320.76,4868019.96,0.00 670316.86,4868031.09,0.00 670311.82,4868047.56,0.00" speed="8.33" />