<?xml version="1.0" encoding="UTF-8"?>

<!-- generated on Fri Mar 29 15:23:05 2024 by Eclipse SUMO netconvert Version 1.4.0
<configuration xmlns:xsi="http://www.w3.org/2001/XMLSchema-instance" xsi:noNamespaceSchemaLocation="http://sumo.dlr.de/xsd/netconvertConfiguration.xsd">

    <input>
        <node-files value="/home/debangis/mosaic/scenario-convert/map/sumo/map.nod.xml"/>
        <edge-files value="/home/debangis/mosaic/scenario-convert/map/sumo/map.edg.xml"/>
        <connection-files value="/home/debangis/mosaic/scenario-convert/map/sumo/map.con.xml"/>
    </input>

    <output>
        <output-file value="/home/debangis/mosaic/scenario-convert/map/sumo/map.net.xml"/>
    </output>

    <report>
        <aggregate-warnings value="5"/>
    </report>

</configuration>
-->

<net version="1.3" junctionCornerDetail="5" limitTurnSpeed="5.50" xmlns:xsi="http://www.w3.org/2001/XMLSchema-instance" xsi:noNamespaceSchemaLocation="http://sumo.dlr.de/xsd/net_file.xsd">

    <location netOffset="-667643.22,-4866096.45" convBoundary="0.00,0.00,3627.60,4715.26" origBoundary="667643.22,4866096.45,671270.82,4870811.71" projParameter="+proj=utm +zone=17  +ellps=WGS84 +datum=WGS84 +units=m +no_defs"/>

    <edge id=":10253189231_0" function="internal">
        <lane id=":10253189231_0_0" index="0" speed="6.40" length="9.04" shape="639.62,3193.95 639.15,3191.50 638.01,3189.82 636.19,3188.93 633.70,3188.81"/>
    </edge>
    <edge id=":10253189231_1" function="internal">
        <lane id=":10253189231_1_0" index="0" speed="8.33" length="14.41" shape="639.62,3193.95 638.96,3179.55"/>
    </edge>
    <edge id=":10253189231_2" function="internal">
        <lane id=":10253189231_2_0" index="0" speed="3.65" length="2.34" shape="639.62,3193.95 640.36,3192.71 641.14,3192.27"/>
    </edge>
    <edge id=":10253189231_9" function="internal">
        <lane id=":10253189231_9_0" index="0" speed="3.65" length="2.34" shape="641.14,3192.27 641.96,3192.64 642.81,3193.80"/>
    </edge>
    <edge id=":10253189231_3" function="internal">
        <lane id=":10253189231_3_0" index="0" speed="8.33" length="14.41" shape="642.16,3179.41 642.81,3193.80"/>
    </edge>
    <edge id=":10253189231_4" function="internal">
        <lane id=":10253189231_4_0" index="0" speed="8.16" length="5.84" shape="642.16,3179.41 641.77,3183.21 640.81,3184.99"/>
    </edge>
    <edge id=":10253189231_5" function="internal">
        <lane id=":10253189231_5_0" index="0" speed="3.65" length="2.34" shape="642.16,3179.41 641.41,3180.64 640.63,3181.08"/>
    </edge>
    <edge id=":10253189231_10" function="internal">
        <lane id=":10253189231_10_0" index="0" speed="8.16" length="8.42" shape="640.81,3184.99 640.24,3186.04 637.55,3187.91 633.70,3188.81"/>
    </edge>
    <edge id=":10253189231_11" function="internal">
        <lane id=":10253189231_11_0" index="0" speed="3.65" length="2.34" shape="640.63,3181.08 639.81,3180.72 638.96,3179.55"/>
    </edge>
    <edge id=":10253189231_6" function="internal">
        <lane id=":10253189231_6_0" index="0" speed="6.70" length="9.28" shape="633.40,3185.62 635.93,3185.04 637.70,3183.83 638.71,3182.00 638.96,3179.55"/>
    </edge>
    <edge id=":10253189231_7" function="internal">
        <lane id=":10253189231_7_0" index="0" speed="7.92" length="14.38" shape="633.40,3185.62 637.36,3185.81 640.25,3187.24 642.07,3189.90 642.81,3193.80"/>
    </edge>
    <edge id=":10253189231_8" function="internal">
        <lane id=":10253189231_8_0" index="0" speed="3.65" length="4.67" shape="633.40,3185.62 634.67,3186.31 635.14,3187.06 634.82,3187.90 633.70,3188.81"/>
    </edge>
    <edge id=":10301314594_0" function="internal">
        <lane id=":10301314594_0_0" index="0" speed="6.48" length="9.03" shape="2206.28,1222.60 2204.38,1221.00 2202.44,1220.40 2200.44,1220.81 2198.39,1222.21"/>
    </edge>
    <edge id=":10301314594_1" function="internal">
        <lane id=":10301314594_1_0" index="0" speed="8.72" length="16.85" shape="2206.28,1222.60 2203.18,1218.31 2201.88,1214.40 2202.38,1210.88 2204.68,1207.75"/>
    </edge>
    <edge id=":10301314594_2" function="internal">
        <lane id=":10301314594_2_0" index="0" speed="3.65" length="4.67" shape="2206.28,1222.60 2206.08,1221.17 2206.41,1220.34 2207.27,1220.11 2208.67,1220.47"/>
    </edge>
    <edge id=":10301314594_3" function="internal">
        <lane id=":10301314594_3_0" index="0" speed="6.56" length="9.10" shape="2209.00,1212.47 2207.44,1214.38 2206.86,1216.36 2207.27,1218.38 2208.67,1220.47"/>
    </edge>
    <edge id=":10301314594_4" function="internal">
        <lane id=":10301314594_4_0" index="0" speed="16.67" length="14.40" shape="2209.00,1212.47 2198.39,1222.21"/>
        <lane id=":10301314594_4_1" index="1" speed="16.67" length="14.40" shape="2206.84,1210.11 2196.23,1219.85"/>
    </edge>
    <edge id=":10301314594_6" function="internal">
        <lane id=":10301314594_6_0" index="0" speed="3.65" length="2.34" shape="2206.84,1210.11 2205.41,1210.33 2204.58,1210.01"/>
    </edge>
    <edge id=":10301314594_11" function="internal">
        <lane id=":10301314594_11_0" index="0" speed="3.65" length="2.34" shape="2204.58,1210.01 2204.33,1209.15 2204.68,1207.75"/>
    </edge>
    <edge id=":10301314594_7" function="internal">
        <lane id=":10301314594_7_0" index="0" speed="16.67" length="14.40" shape="2191.90,1215.13 2202.51,1205.40"/>
        <lane id=":10301314594_7_1" index="1" speed="16.67" length="14.40" shape="2194.07,1217.49 2204.68,1207.75"/>
    </edge>
    <edge id=":10301314594_9" function="internal">
        <lane id=":10301314594_9_0" index="0" speed="8.65" length="5.29" shape="2194.07,1217.49 2197.44,1215.42 2198.77,1215.34"/>
    </edge>
    <edge id=":10301314594_10" function="internal">
        <lane id=":10301314594_10_0" index="0" speed="3.65" length="2.34" shape="2194.07,1217.49 2195.49,1217.27 2196.33,1217.59"/>
    </edge>
    <edge id=":10301314594_12" function="internal">
        <lane id=":10301314594_12_0" index="0" speed="8.65" length="11.64" shape="2198.77,1215.34 2201.00,1215.22 2204.74,1216.91 2208.67,1220.47"/>
    </edge>
    <edge id=":10301314594_13" function="internal">
        <lane id=":10301314594_13_0" index="0" speed="3.65" length="2.34" shape="2196.33,1217.59 2196.57,1218.45 2196.23,1219.85"/>
    </edge>
    <edge id=":10301314595_0" function="internal">
        <lane id=":10301314595_0_0" index="0" speed="3.65" length="4.67" shape="2230.28,1244.69 2230.49,1246.12 2230.16,1246.95 2229.29,1247.19 2227.90,1246.83"/>
    </edge>
    <edge id=":1076433360_0" function="internal">
        <lane id=":1076433360_0_0" index="0" speed="7.28" length="9.61" shape="3016.97,2388.71 3015.52,2386.78 3013.66,2385.62 3011.40,2385.25 3008.72,2385.66"/>
    </edge>
    <edge id=":1076433360_1" function="internal">
        <lane id=":1076433360_1_0" index="0" speed="13.89" length="14.10" shape="3016.97,2388.71 3015.35,2385.49 3013.98,2382.33 3012.78,2379.11 3011.68,2375.67"/>
    </edge>
    <edge id=":1076433360_2" function="internal">
        <lane id=":1076433360_2_0" index="0" speed="3.65" length="2.34" shape="3016.97,2388.71 3017.11,2387.28 3017.63,2386.55"/>
    </edge>
    <edge id=":1076433360_9" function="internal">
        <lane id=":1076433360_9_0" index="0" speed="3.65" length="2.34" shape="3017.63,2386.55 3018.52,2386.52 3019.79,2387.21"/>
    </edge>
    <edge id=":1076433360_3" function="internal">
        <lane id=":1076433360_3_0" index="0" speed="13.89" length="13.46" shape="3014.74,2374.75 3015.80,2378.10 3016.92,2381.12 3018.21,2384.07 3019.79,2387.21"/>
    </edge>
    <edge id=":1076433360_4" function="internal">
        <lane id=":1076433360_4_0" index="0" speed="7.97" length="5.58" shape="3014.74,2374.75 3015.32,2378.63 3014.90,2380.23"/>
    </edge>
    <edge id=":1076433360_5" function="internal">
        <lane id=":1076433360_5_0" index="0" speed="3.65" length="2.34" shape="3014.74,2374.75 3014.32,2376.13 3013.67,2376.74"/>
    </edge>
    <edge id=":1076433360_10" function="internal">
        <lane id=":1076433360_10_0" index="0" speed="7.97" length="8.69" shape="3014.90,2380.23 3014.51,2381.74 3012.31,2384.08 3008.72,2385.66"/>
    </edge>
    <edge id=":1076433360_11" function="internal">
        <lane id=":1076433360_11_0" index="0" speed="3.65" length="2.34" shape="3013.67,2376.74 3012.79,2376.59 3011.68,2375.67"/>
    </edge>
    <edge id=":1076433360_6" function="internal">
        <lane id=":1076433360_6_0" index="0" speed="6.47" length="9.03" shape="3007.86,2382.57 3010.14,2381.58 3011.53,2380.09 3012.04,2378.12 3011.68,2375.67"/>
    </edge>
    <edge id=":1076433360_7" function="internal">
        <lane id=":1076433360_7_0" index="0" speed="8.66" length="13.99" shape="3007.86,2382.57 3011.70,2382.00 3014.96,2382.59 3017.66,2384.32 3019.79,2387.21"/>
    </edge>
    <edge id=":1076433360_8" function="internal">
        <lane id=":1076433360_8_0" index="0" speed="3.65" length="4.67" shape="3007.86,2382.57 3009.23,2383.02 3009.83,2383.69 3009.66,2384.56 3008.72,2385.66"/>
    </edge>
    <edge id=":1076433364_0" function="internal">
        <lane id=":1076433364_0_0" index="0" speed="6.49" length="9.03" shape="3154.50,2461.55 3152.07,2461.05 3150.07,2461.45 3148.50,2462.75 3147.36,2464.95"/>
    </edge>
    <edge id=":1076433364_1" function="internal">
        <lane id=":1076433364_1_0" index="0" speed="13.89" length="14.41" shape="3154.50,2461.55 3140.93,2456.72"/>
    </edge>
    <edge id=":1076433364_2" function="internal">
        <lane id=":1076433364_2_0" index="0" speed="3.65" length="2.34" shape="3154.50,2461.55 3153.64,2460.39 3153.53,2459.50"/>
    </edge>
    <edge id=":1076433364_9" function="internal">
        <lane id=":1076433364_9_0" index="0" speed="3.65" length="2.34" shape="3153.53,2459.50 3154.18,2458.88 3155.58,2458.53"/>
    </edge>
    <edge id=":1076433364_3" function="internal">
        <lane id=":1076433364_3_0" index="0" speed="13.89" length="14.42" shape="3141.99,2453.71 3155.58,2458.53"/>
    </edge>
    <edge id=":1076433364_4" function="internal">
        <lane id=":1076433364_4_0" index="0" speed="8.01" length="5.94" shape="3141.99,2453.71 3145.43,2455.51 3146.74,2457.09"/>
    </edge>
    <edge id=":1076433364_5" function="internal">
        <lane id=":1076433364_5_0" index="0" speed="3.65" length="2.34" shape="3141.99,2453.71 3142.86,2454.86 3142.97,2455.75"/>
    </edge>
    <edge id=":1076433364_10" function="internal">
        <lane id=":1076433364_10_0" index="0" speed="8.01" length="8.26" shape="3146.74,2457.09 3147.48,2457.98 3148.12,2461.13 3147.36,2464.95"/>
    </edge>
    <edge id=":1076433364_11" function="internal">
        <lane id=":1076433364_11_0" index="0" speed="3.65" length="2.34" shape="3142.97,2455.75 3142.32,2456.37 3140.93,2456.72"/>
    </edge>
    <edge id=":1076433364_6" function="internal">
        <lane id=":1076433364_6_0" index="0" speed="6.52" length="9.05" shape="3144.34,2463.89 3144.83,2461.46 3144.42,2459.45 3143.12,2457.87 3140.93,2456.72"/>
    </edge>
    <edge id=":1076433364_7" function="internal">
        <lane id=":1076433364_7_0" index="0" speed="7.99" length="14.22" shape="3144.34,2463.89 3146.14,2460.43 3148.61,2458.39 3151.76,2457.75 3155.58,2458.53"/>
    </edge>
    <edge id=":1076433364_8" function="internal">
        <lane id=":1076433364_8_0" index="0" speed="3.65" length="4.67" shape="3144.34,2463.89 3145.49,2463.03 3146.38,2462.91 3147.00,2463.56 3147.36,2464.95"/>
    </edge>
    <edge id=":1076433365_0" function="internal">
        <lane id=":1076433365_0_0" index="0" speed="6.61" length="9.17" shape="2898.51,2251.91 2896.01,2251.47 2893.96,2251.90 2892.36,2253.21 2891.22,2255.40"/>
    </edge>
    <edge id=":1076433365_1" function="internal">
        <lane id=":1076433365_1_0" index="0" speed="7.95" length="14.31" shape="2898.51,2251.91 2894.98,2250.18 2892.88,2247.75 2892.22,2244.60 2893.00,2240.74"/>
    </edge>
    <edge id=":1076433365_2" function="internal">
        <lane id=":1076433365_2_0" index="0" speed="3.65" length="4.67" shape="2898.51,2251.91 2897.62,2250.78 2897.48,2249.90 2898.11,2249.26 2899.50,2248.87"/>
    </edge>
    <edge id=":1076433365_3" function="internal">
        <lane id=":1076433365_3_0" index="0" speed="6.44" length="9.03" shape="2896.01,2241.81 2895.52,2244.25 2895.94,2246.24 2897.26,2247.78 2899.50,2248.87"/>
    </edge>
    <edge id=":1076433365_4" function="internal">
        <lane id=":1076433365_4_0" index="0" speed="8.33" length="14.41" shape="2896.01,2241.81 2891.22,2255.40"/>
    </edge>
    <edge id=":1076433365_5" function="internal">
        <lane id=":1076433365_5_0" index="0" speed="3.65" length="2.34" shape="2896.01,2241.81 2894.86,2242.67 2893.97,2242.78"/>
    </edge>
    <edge id=":1076433365_9" function="internal">
        <lane id=":1076433365_9_0" index="0" speed="3.65" length="2.34" shape="2893.97,2242.78 2893.35,2242.14 2893.00,2240.74"/>
    </edge>
    <edge id=":1076433365_6" function="internal">
        <lane id=":1076433365_6_0" index="0" speed="8.33" length="14.43" shape="2888.20,2254.34 2893.00,2240.74"/>
    </edge>
    <edge id=":1076433365_7" function="internal">
        <lane id=":1076433365_7_0" index="0" speed="8.09" length="5.91" shape="2888.20,2254.34 2889.98,2250.93 2891.56,2249.62"/>
    </edge>
    <edge id=":1076433365_8" function="internal">
        <lane id=":1076433365_8_0" index="0" speed="3.65" length="2.34" shape="2888.20,2254.34 2889.35,2253.48 2890.24,2253.36"/>
    </edge>
    <edge id=":1076433365_10" function="internal">
        <lane id=":1076433365_10_0" index="0" speed="8.09" length="8.33" shape="2891.56,2249.62 2892.46,2248.88 2895.63,2248.19 2899.50,2248.87"/>
    </edge>
    <edge id=":1076433365_11" function="internal">
        <lane id=":1076433365_11_0" index="0" speed="3.65" length="2.34" shape="2890.24,2253.36 2890.86,2254.00 2891.22,2255.40"/>
    </edge>
    <edge id=":1076433367_0" function="internal">
        <lane id=":1076433367_0_0" index="0" speed="3.65" length="4.67" shape="3098.10,2344.06 3097.21,2342.92 3097.08,2342.04 3097.71,2341.40 3099.10,2341.02"/>
    </edge>
    <edge id=":1076433370_0" function="internal">
        <lane id=":1076433370_0_0" index="0" speed="8.33" length="0.73" shape="3353.57,2447.64 3353.36,2447.66 3353.21,2447.68 3353.06,2447.68 3352.85,2447.67"/>
    </edge>
    <edge id=":1076433370_1" function="internal">
        <lane id=":1076433370_1_0" index="0" speed="8.33" length="0.24" shape="3352.93,2444.47 3353.00,2444.48 3353.05,2444.48 3353.10,2444.47 3353.17,2444.46"/>
    </edge>
    <edge id=":1076433396_0" function="internal">
        <lane id=":1076433396_0_0" index="0" speed="8.33" length="14.33" shape="2920.30,2387.46 2906.68,2383.01"/>
    </edge>
    <edge id=":1076433396_1" function="internal">
        <lane id=":1076433396_1_0" index="0" speed="7.96" length="5.85" shape="2920.30,2387.46 2916.79,2385.70 2915.55,2384.22"/>
    </edge>
    <edge id=":1076433396_2" function="internal">
        <lane id=":1076433396_2_0" index="0" speed="3.65" length="2.34" shape="2920.30,2387.46 2919.42,2386.32 2919.29,2385.43"/>
    </edge>
    <edge id=":1076433396_9" function="internal">
        <lane id=":1076433396_9_0" index="0" speed="7.96" length="8.43" shape="2915.55,2384.22 2914.72,2383.24 2914.08,2380.09 2914.88,2376.24"/>
    </edge>
    <edge id=":1076433396_10" function="internal">
        <lane id=":1076433396_10_0" index="0" speed="3.65" length="2.34" shape="2919.29,2385.43 2919.93,2384.80 2921.32,2384.42"/>
    </edge>
    <edge id=":1076433396_3" function="internal">
        <lane id=":1076433396_3_0" index="0" speed="6.46" length="9.03" shape="2917.89,2377.33 2917.38,2379.76 2917.79,2381.76 2919.10,2383.31 2921.32,2384.42"/>
    </edge>
    <edge id=":1076433396_4" function="internal">
        <lane id=":1076433396_4_0" index="0" speed="8.12" length="14.21" shape="2917.89,2377.33 2916.06,2380.79 2913.59,2382.90 2910.46,2383.63 2906.68,2383.01"/>
    </edge>
    <edge id=":1076433396_5" function="internal">
        <lane id=":1076433396_5_0" index="0" speed="3.65" length="4.67" shape="2917.89,2377.33 2916.73,2378.19 2915.84,2378.29 2915.22,2377.64 2914.88,2376.24"/>
    </edge>
    <edge id=":1076433396_6" function="internal">
        <lane id=":1076433396_6_0" index="0" speed="6.65" length="9.19" shape="2907.65,2379.96 2910.08,2380.36 2912.10,2379.87 2913.70,2378.50 2914.88,2376.24"/>
    </edge>
    <edge id=":1076433396_7" function="internal">
        <lane id=":1076433396_7_0" index="0" speed="8.33" length="14.38" shape="2907.65,2379.96 2921.32,2384.42"/>
    </edge>
    <edge id=":1076433396_8" function="internal">
        <lane id=":1076433396_8_0" index="0" speed="3.65" length="2.34" shape="2907.65,2379.96 2908.55,2381.08 2908.69,2381.97"/>
    </edge>
    <edge id=":1076433396_11" function="internal">
        <lane id=":1076433396_11_0" index="0" speed="3.65" length="2.34" shape="2908.69,2381.97 2908.07,2382.61 2906.68,2383.01"/>
    </edge>
    <edge id=":1076433411_0" function="internal">
        <lane id=":1076433411_0_0" index="0" speed="13.89" length="14.30" shape="3272.22,2503.77 3258.81,2498.82"/>
    </edge>
    <edge id=":1076433411_1" function="internal">
        <lane id=":1076433411_1_0" index="0" speed="7.99" length="5.82" shape="3272.22,2503.77 3268.81,2501.88 3267.63,2500.37"/>
    </edge>
    <edge id=":1076433411_2" function="internal">
        <lane id=":1076433411_2_0" index="0" speed="3.65" length="2.34" shape="3272.22,2503.77 3271.38,2502.60 3271.30,2501.71"/>
    </edge>
    <edge id=":1076433411_9" function="internal">
        <lane id=":1076433411_9_0" index="0" speed="7.99" length="8.41" shape="3267.63,2500.37 3266.83,2499.35 3266.29,2496.19 3267.18,2492.39"/>
    </edge>
    <edge id=":1076433411_10" function="internal">
        <lane id=":1076433411_10_0" index="0" speed="3.65" length="2.34" shape="3271.30,2501.71 3271.95,2501.10 3273.36,2500.78"/>
    </edge>
    <edge id=":1076433411_3" function="internal">
        <lane id=":1076433411_3_0" index="0" speed="6.49" length="9.03" shape="3270.16,2493.55 3269.59,2495.96 3269.94,2497.97 3271.19,2499.58 3273.36,2500.78"/>
    </edge>
    <edge id=":1076433411_4" function="internal">
        <lane id=":1076433411_4_0" index="0" speed="8.08" length="14.18" shape="3270.16,2493.55 3268.25,2496.95 3265.72,2498.96 3262.58,2499.58 3258.81,2498.82"/>
    </edge>
    <edge id=":1076433411_5" function="internal">
        <lane id=":1076433411_5_0" index="0" speed="3.65" length="4.67" shape="3270.16,2493.55 3268.98,2494.38 3268.09,2494.46 3267.49,2493.80 3267.18,2492.39"/>
    </edge>
    <edge id=":1076433411_6" function="internal">
        <lane id=":1076433411_6_0" index="0" speed="6.60" length="9.13" shape="3259.89,2495.80 3262.30,2496.29 3264.32,2495.88 3265.95,2494.58 3267.18,2492.39"/>
    </edge>
    <edge id=":1076433411_7" function="internal">
        <lane id=":1076433411_7_0" index="0" speed="13.89" length="14.37" shape="3259.89,2495.80 3273.36,2500.78"/>
    </edge>
    <edge id=":1076433411_8" function="internal">
        <lane id=":1076433411_8_0" index="0" speed="3.65" length="2.34" shape="3259.89,2495.80 3260.75,2496.96 3260.85,2497.85"/>
    </edge>
    <edge id=":1076433411_11" function="internal">
        <lane id=":1076433411_11_0" index="0" speed="3.65" length="2.34" shape="3260.85,2497.85 3260.21,2498.47 3258.81,2498.82"/>
    </edge>
    <edge id=":1076433412_0" function="internal">
        <lane id=":1076433412_0_0" index="0" speed="6.59" length="9.14" shape="3052.19,2232.15 3049.71,2231.68 3047.66,2232.10 3046.06,2233.39 3044.90,2235.57"/>
    </edge>
    <edge id=":1076433412_1" function="internal">
        <lane id=":1076433412_1_0" index="0" speed="7.97" length="14.27" shape="3052.19,2232.15 3048.69,2230.39 3046.61,2227.93 3045.97,2224.78 3046.75,2220.94"/>
    </edge>
    <edge id=":1076433412_2" function="internal">
        <lane id=":1076433412_2_0" index="0" speed="3.65" length="4.67" shape="3052.19,2232.15 3051.31,2231.01 3051.18,2230.12 3051.81,2229.49 3053.21,2229.11"/>
    </edge>
    <edge id=":1076433412_3" function="internal">
        <lane id=":1076433412_3_0" index="0" speed="6.46" length="9.03" shape="3049.77,2222.02 3049.27,2224.45 3049.68,2226.44 3050.99,2228.00 3053.21,2229.11"/>
    </edge>
    <edge id=":1076433412_4" function="internal">
        <lane id=":1076433412_4_0" index="0" speed="8.33" length="14.40" shape="3049.77,2222.02 3044.90,2235.57"/>
    </edge>
    <edge id=":1076433412_5" function="internal">
        <lane id=":1076433412_5_0" index="0" speed="3.65" length="2.34" shape="3049.77,2222.02 3048.61,2222.88 3047.72,2222.99"/>
    </edge>
    <edge id=":1076433412_9" function="internal">
        <lane id=":1076433412_9_0" index="0" speed="3.65" length="2.34" shape="3047.72,2222.99 3047.10,2222.34 3046.75,2220.94"/>
    </edge>
    <edge id=":1076433412_6" function="internal">
        <lane id=":1076433412_6_0" index="0" speed="8.33" length="14.39" shape="3041.89,2234.48 3046.75,2220.94"/>
    </edge>
    <edge id=":1076433412_7" function="internal">
        <lane id=":1076433412_7_0" index="0" speed="8.07" length="5.88" shape="3041.89,2234.48 3043.70,2231.08 3045.27,2229.80"/>
    </edge>
    <edge id=":1076433412_8" function="internal">
        <lane id=":1076433412_8_0" index="0" speed="3.65" length="2.34" shape="3041.89,2234.48 3043.05,2233.63 3043.93,2233.52"/>
    </edge>
    <edge id=":1076433412_10" function="internal">
        <lane id=":1076433412_10_0" index="0" speed="8.07" length="8.34" shape="3045.27,2229.80 3046.19,2229.05 3049.36,2228.40 3053.21,2229.11"/>
    </edge>
    <edge id=":1076433412_11" function="internal">
        <lane id=":1076433412_11_0" index="0" speed="3.65" length="2.34" shape="3043.93,2233.52 3044.55,2234.17 3044.90,2235.57"/>
    </edge>
    <edge id=":1076433413_0" function="internal">
        <lane id=":1076433413_0_0" index="0" speed="3.65" length="4.67" shape="3115.32,2504.62 3113.88,2504.46 3113.16,2503.94 3113.15,2503.04 3113.84,2501.78"/>
    </edge>
    <edge id=":1076433414_0" function="internal">
        <lane id=":1076433414_0_0" index="0" speed="8.33" length="14.05" shape="2959.07,2262.42 2954.63,2275.74"/>
    </edge>
    <edge id=":1076433414_1" function="internal">
        <lane id=":1076433414_1_0" index="0" speed="8.04" length="5.70" shape="2959.07,2262.42 2957.30,2265.80 2955.86,2267.00"/>
    </edge>
    <edge id=":1076433414_2" function="internal">
        <lane id=":1076433414_2_0" index="0" speed="3.65" length="2.34" shape="2959.07,2262.42 2957.92,2263.28 2957.03,2263.39"/>
    </edge>
    <edge id=":1076433414_9" function="internal">
        <lane id=":1076433414_9_0" index="0" speed="8.04" length="8.31" shape="2955.86,2267.00 2954.86,2267.83 2951.76,2268.52 2947.98,2267.87"/>
    </edge>
    <edge id=":1076433414_10" function="internal">
        <lane id=":1076433414_10_0" index="0" speed="3.65" length="2.34" shape="2957.03,2263.39 2956.41,2262.75 2956.06,2261.35"/>
    </edge>
    <edge id=":1076433414_3" function="internal">
        <lane id=":1076433414_3_0" index="0" speed="6.55" length="8.95" shape="2948.96,2264.82 2951.38,2265.24 2953.37,2264.80 2954.93,2263.50 2956.06,2261.35"/>
    </edge>
    <edge id=":1076433414_4" function="internal">
        <lane id=":1076433414_4_0" index="0" speed="7.89" length="14.14" shape="2948.96,2264.82 2952.55,2266.55 2954.68,2268.94 2955.38,2272.01 2954.63,2275.74"/>
    </edge>
    <edge id=":1076433414_5" function="internal">
        <lane id=":1076433414_5_0" index="0" speed="3.65" length="4.67" shape="2948.96,2264.82 2949.86,2265.95 2949.99,2266.84 2949.37,2267.48 2947.98,2267.87"/>
    </edge>
    <edge id=":1076433414_6" function="internal">
        <lane id=":1076433414_6_0" index="0" speed="6.41" length="8.98" shape="2951.56,2274.81 2952.04,2272.43 2951.60,2270.48 2950.25,2268.96 2947.98,2267.87"/>
    </edge>
    <edge id=":1076433414_7" function="internal">
        <lane id=":1076433414_7_0" index="0" speed="8.33" length="14.19" shape="2951.56,2274.81 2956.06,2261.35"/>
    </edge>
    <edge id=":1076433414_8" function="internal">
        <lane id=":1076433414_8_0" index="0" speed="3.65" length="2.34" shape="2951.56,2274.81 2952.68,2273.89 2953.56,2273.74"/>
    </edge>
    <edge id=":1076433414_11" function="internal">
        <lane id=":1076433414_11_0" index="0" speed="3.65" length="2.34" shape="2953.56,2273.74 2954.21,2274.36 2954.63,2275.74"/>
    </edge>
    <edge id=":1076433422_0" function="internal">
        <lane id=":1076433422_0_0" index="0" speed="6.47" length="9.03" shape="3299.98,2429.43 3297.56,2428.87 3295.56,2429.22 3293.96,2430.49 3292.78,2432.67"/>
    </edge>
    <edge id=":1076433422_1" function="internal">
        <lane id=":1076433422_1_0" index="0" speed="8.11" length="14.19" shape="3299.98,2429.43 3296.57,2427.53 3294.54,2425.00 3293.88,2421.86 3294.61,2418.10"/>
    </edge>
    <edge id=":1076433422_2" function="internal">
        <lane id=":1076433422_2_0" index="0" speed="3.65" length="4.67" shape="3299.98,2429.43 3299.15,2428.25 3299.07,2427.36 3299.73,2426.76 3301.14,2426.45"/>
    </edge>
    <edge id=":1076433422_3" function="internal">
        <lane id=":1076433422_3_0" index="0" speed="6.64" length="9.17" shape="3297.63,2419.14 3297.17,2421.56 3297.60,2423.59 3298.92,2425.22 3301.14,2426.45"/>
    </edge>
    <edge id=":1076433422_4" function="internal">
        <lane id=":1076433422_4_0" index="0" speed="8.33" length="14.37" shape="3297.63,2419.14 3292.78,2432.67"/>
    </edge>
    <edge id=":1076433422_5" function="internal">
        <lane id=":1076433422_5_0" index="0" speed="3.65" length="2.34" shape="3297.63,2419.14 3296.48,2420.02 3295.60,2420.13"/>
    </edge>
    <edge id=":1076433422_9" function="internal">
        <lane id=":1076433422_9_0" index="0" speed="3.65" length="2.34" shape="3295.60,2420.13 3294.97,2419.49 3294.61,2418.10"/>
    </edge>
    <edge id=":1076433422_6" function="internal">
        <lane id=":1076433422_6_0" index="0" speed="8.33" length="14.30" shape="3289.78,2431.55 3294.61,2418.10"/>
    </edge>
    <edge id=":1076433422_7" function="internal">
        <lane id=":1076433422_7_0" index="0" speed="7.97" length="5.82" shape="3289.78,2431.55 3291.65,2428.11 3293.14,2426.93"/>
    </edge>
    <edge id=":1076433422_8" function="internal">
        <lane id=":1076433422_8_0" index="0" speed="3.65" length="2.34" shape="3289.78,2431.55 3290.94,2430.71 3291.83,2430.61"/>
    </edge>
    <edge id=":1076433422_10" function="internal">
        <lane id=":1076433422_10_0" index="0" speed="7.97" length="8.44" shape="3293.14,2426.93 3294.16,2426.12 3297.33,2425.56 3301.14,2426.45"/>
    </edge>
    <edge id=":1076433422_11" function="internal">
        <lane id=":1076433422_11_0" index="0" speed="3.65" length="2.34" shape="3291.83,2430.61 3292.44,2431.26 3292.78,2432.67"/>
    </edge>
    <edge id=":1076433604_0" function="internal">
        <lane id=":1076433604_0_0" index="0" speed="8.33" length="14.41" shape="3263.96,1671.70 3250.33,1667.02"/>
    </edge>
    <edge id=":1076433604_1" function="internal">
        <lane id=":1076433604_1_0" index="0" speed="7.96" length="5.94" shape="3263.96,1671.70 3260.46,1669.92 3259.18,1668.37"/>
    </edge>
    <edge id=":1076433604_2" function="internal">
        <lane id=":1076433604_2_0" index="0" speed="3.65" length="2.34" shape="3263.96,1671.70 3263.09,1670.56 3262.97,1669.67"/>
    </edge>
    <edge id=":1076433604_9" function="internal">
        <lane id=":1076433604_9_0" index="0" speed="7.96" length="8.35" shape="3259.18,1668.37 3258.41,1667.44 3257.79,1664.29 3258.63,1660.45"/>
    </edge>
    <edge id=":1076433604_10" function="internal">
        <lane id=":1076433604_10_0" index="0" speed="3.65" length="2.34" shape="3262.97,1669.67 3263.60,1669.04 3265.00,1668.68"/>
    </edge>
    <edge id=":1076433604_3" function="internal">
        <lane id=":1076433604_3_0" index="0" speed="6.45" length="9.03" shape="3261.63,1661.56 3261.10,1663.99 3261.49,1665.98 3262.79,1667.55 3265.00,1668.68"/>
    </edge>
    <edge id=":1076433604_4" function="internal">
        <lane id=":1076433604_4_0" index="0" speed="8.08" length="14.23" shape="3261.63,1661.56 3259.76,1665.01 3257.26,1667.07 3254.12,1667.74 3250.33,1667.02"/>
    </edge>
    <edge id=":1076433604_5" function="internal">
        <lane id=":1076433604_5_0" index="0" speed="3.65" length="4.67" shape="3261.63,1661.56 3260.46,1662.41 3259.57,1662.50 3258.96,1661.85 3258.63,1660.45"/>
    </edge>
    <edge id=":1076433604_6" function="internal">
        <lane id=":1076433604_6_0" index="0" speed="6.60" length="9.16" shape="3251.37,1664.00 3253.80,1664.45 3255.82,1664.02 3257.43,1662.68 3258.63,1660.45"/>
    </edge>
    <edge id=":1076433604_7" function="internal">
        <lane id=":1076433604_7_0" index="0" speed="8.33" length="14.40" shape="3251.37,1664.00 3265.00,1668.68"/>
    </edge>
    <edge id=":1076433604_8" function="internal">
        <lane id=":1076433604_8_0" index="0" speed="3.65" length="2.34" shape="3251.37,1664.00 3252.25,1665.15 3252.37,1666.03"/>
    </edge>
    <edge id=":1076433604_11" function="internal">
        <lane id=":1076433604_11_0" index="0" speed="3.65" length="2.34" shape="3252.37,1666.03 3251.73,1666.66 3250.33,1667.02"/>
    </edge>
    <edge id=":1076433613_0" function="internal">
        <lane id=":1076433613_0_0" index="0" speed="8.33" length="14.39" shape="3388.15,1793.77 3383.41,1807.36"/>
    </edge>
    <edge id=":1076433613_1" function="internal">
        <lane id=":1076433613_1_0" index="0" speed="8.01" length="5.92" shape="3388.15,1793.77 3386.37,1797.22 3384.80,1798.52"/>
    </edge>
    <edge id=":1076433613_2" function="internal">
        <lane id=":1076433613_2_0" index="0" speed="3.65" length="2.34" shape="3388.15,1793.77 3387.00,1794.64 3386.12,1794.75"/>
    </edge>
    <edge id=":1076433613_9" function="internal">