<connections>
	<connection from="29274686_321911772_321911731" to="29274686_321911731_321911772" />
	<connection from="29274686_321911772_321911731" to="217691633_321911731_321911734" />
	<connection from="438878876_3245614624_3218421219" to="257194958_3218421219_2627890470" />
	<connection from="438878876_3245614624_3218421219" to="257194958_3218421219_4152003840" />
	<connection from="438878876_3245614624_3218421219" to="438878876_3218421219_3245614624" />
	<connection from="476644006_4701437159_4152003840" to="257194958_4152003840_3218421219" />
	<connection from="476644006_4701437159_4152003840" to="414001597_4152003840_4427096200" />
	<connection from="476644006_4701437159_4152003840" to="476644006_4152003840_4701437159" />
	<connection from="122725833_671345660_1076434178" to="122725833_1076434178_671345660" />
	<connection from="122725833_671345660_1076434178" to="92826457_1076434178_7857708738" />
	<connection from="122725833_671345660_1076434178" to="122725833_1076434178_322085656" />
	<connection from="1233932319_8177214328_287484083" to="878983106_287484083_1400105116" />
	<connection from="1233932319_8177214328_287484083" to="26250783_287484083_8177129181" />
	<connection from="553376776_5341780969_5341780983" to="553376781_5341780983_5341780979" />
	<connection from="553376776_5341780969_5341780983" to="553376776_5341780983_5341780969" />
	<connection from="553376776_5341780969_5341780983" to="553376781_5341780983_5341780984" />
	<connection from="34192538_392164946_392162554" to="34191231_392162554_559270061" />
	<connection from="34192538_392164946_392162554" to="34192538_392162554_392164946" />
	<connection from="34192538_392164946_392162554" to="34191231_392162554_392167281" />
	<connection from="29274720_321912009_321912010" to="29274720_321912010_321912009" />
	<connection from="29274720_321912009_321912010" to="500683000_321912010_2270006946" />
	<connection from="29274720_321912009_321912010" to="29274726_321912010_321912076" />
	<connection from="29274720_321912009_321912010" to="29274720_321912010_321911977" />
	<connection from="34196091_597508700_597508699" to="34196091_597508699_597508700" />
	<connection from="34196091_597508700_597508699" to="34194197_597508699_392167050" />
	<connection from="34196091_597508700_597508699" to="34196091_597508699_392173496" />
	<connection from="292381078_1076441819_1803268962" to="292381079_1803268962_1076441686" />
	<connection from="122733322_327281684_327281680" to="29709388_327281680_327281016" />
	<connection from="122733322_327281684_327281680" to="29709386_327281680_327281016" />
	<connection from="122733322_327281684_327281680" to="122733322_327281680_327281684" />
	<connection from="92829623_1076441740_1076441847" to="92829623_1076441847_1076441910" />
	<connection from="878992795_392163204_1076440554" to="814754035_1076440554_7610358680" />
	<connection from="378140862_321874320_392169129" to="378140862_392169129_321874320" />
	<connection from="378140862_321874320_392169129" to="29274686_392169129_321911772" />
	<connection from="378140862_321874320_392169129" to="378140862_392169129_3815574229" />
	<connection from="378140862_321874320_392169129" to="34191249_392169129_1124885710" />
	<connection from="92826457_1076434178_7857708738" to="92826457_7857708738_1076434178" />
	<connection from="92829623_1076441910_1076441767" to="92829623_1076441767_1076441806" />
	<connection from="92829689_2281049612_1076441757" to="92829689_1076441757_2281049612" />
	<connection from="92829689_2281049612_1076441757" to="92829660_1076441757_1788713139" />
	<connection from="92829643_1076441852_1803268926" to="466711839_1803268926_1285503476" />
	<connection from="92829643_1076441852_1803268926" to="476644013_1803268926_1076441686" />
	<connection from="92829685_1076441842_9104563469" to="92829685_9104563469_1076441842" />
	<connection from="92829685_1076441842_9104563469" to="984789747_9104563469_2627890467" />
	<connection from="29274686_321911731_321911772" to="123475040_321911772_1376850551" />
	<connection from="29274686_321911731_321911772" to="29274686_321911772_392169129" />
	<connection from="29274686_321911731_321911772" to="29274686_321911772_321911731" />
	<connection from="29274686_321911731_321911772" to="29274703_321911772_321911775" />
	<connection from="118114902_316502311_316500997" to="28784569_316500997_3815574229" />
	<connection from="118114902_316502311_316500997" to="447557531_316500997_321928363" />
	<connection from="118114902_316502311_316500997" to="118114902_316500997_316502311" />
	<connection from="118114902_316502311_316500997" to="118114903_316500997_321912009" />
	<connection from="541860079_5239244233_5239244226" to="541860079_5239244226_5239244233" />
	<connection from="541860079_5239244233_5239244226" to="541860075_5239244226_5239244225" />
	<connection from="541860079_5239244233_5239244226" to="541860079_5239244226_5239244225" />
	<connection from="500682236_1285490480_392169272" to="34190078_392169272_392172991" />
	<connection from="500682236_1285490480_392169272" to="29276254_392169272_392167050" />
	<connection from="500682236_1285490480_392169272" to="500682236_392169272_1285490480" />
	<connection from="984789184_9104576054_4262547160" to="521569304_4262547160_4262547163" />
	<connection from="460693479_10253189231_4262548206" to="460693478_4262548206_5341780984" />
	<connection from="460693479_10253189231_4262548206" to="480759976_4262548206_6470196718" />
	<connection from="460693479_10253189231_4262548206" to="541860078_4262548206_5239244237" />
	<connection from="460693479_10253189231_4262548206" to="460693479_4262548206_10253189231" />
	<connection from="29958612_4563096511_329888258" to="29958612_329888258_4563096511" />
	<connection from="29958612_4563096511_329888258" to="29959621_329888258_329888485" />
	<connection from="29958612_4563096511_329888258" to="29958612_329888258_329882422" />
	<connection from="92829685_9104563469_1076441842" to="476644009_1076441842_1076441852" />
	<connection from="92829685_9104563469_1076441842" to="92829685_1076441842_9104563469" />
	<connection from="500683000_2270006946_321912010" to="29274720_321912010_321912009" />
	<connection from="500683000_2270006946_321912010" to="500683000_321912010_2270006946" />
	<connection from="500683000_2270006946_321912010" to="29274726_321912010_321912076" />
	<connection from="500683000_2270006946_321912010" to="29274720_321912010_321911977" />
	<connection from="92829632_1076441805_1076441835" to="242077330_1076441835_1076441925" />
	<connection from="92829632_1076441805_1076441835" to="92829699_1076441835_1076441807" />
	<connection from="92829632_1076441805_1076441835" to="92829632_1076441835_1076441805" />
	<connection from="200084457_1076441878_1076441810" to="200084457_1076441810_1076441878" />
	<connection from="200084457_1076441878_1076441810" to="476644018_1076441810_1076441726" />
	<connection from="427007036_5318515226_5318515228" to="984789186_5318515228_9104576051" />
	<connection from="29709386_327281680_327281016" to="29709386_327281016_1400085332" />
	<connection from="29709386_327281680_327281016" to="29709388_327281016_327281680" />
	<connection from="29709386_327281680_327281016" to="29709386_327281016_327281680" />
	<connection from="146418413_11690274876_329890642" to="146418413_329890642_11690274876" />
	<connection from="146418413_11690274876_329890642" to="146418413_329890642_327279740" />
	<connection from="146418413_11690274876_329890642" to="29960053_329890642_327279580" />
	<connection from="553376776_5341780969_5341780970" to="553376776_5341780970_5341780969" />
	<connection from="1257368529_11690274873_309716487" to="283022361_309716487_309716425" />
	<connection from="1257368529_11690274873_309716487" to="1257368529_309716487_11690274873" />
	<connection from="242076782_1076441731_3842071961" to="92829624_3842071961_2496266425" />
	<connection from="92829678_1805669510_1076441805" to="92829678_1076441805_1805669510" />
	<connection from="92829678_1805669510_1076441805" to="92829632_1076441805_1076441835" />
	<connection from="92829678_1805669510_1076441805" to="92829667_1076441805_1076441807" />
	<connection from="179162398_1789086077_8669461480" to="1174961986_8669461480_10917809143" />
	<connection from="29959621_329888258_329888485" to="29959621_329888485_329888276" />
	<connection from="29959621_329888258_329888485" to="403206923_329888485_329888486" />
	<connection from="29959621_329888258_329888485" to="29959621_329888485_329888258" />
	<connection from="92829637_1803285662_1076441753" to="92829637_1076441753_1803285662" />
	<connection from="92829637_1803285662_1076441753" to="92829637_1076441753_1076441844" />
	<connection from="92829637_1803285662_1076441753" to="92829684_1076441753_1076441774" />
	<connection from="29274703_321911772_321911775" to="29274703_321911775_321911772" />
	<connection from="29274703_321911772_321911775" to="123471220_321911775_1376841315" />
	<connection from="29274703_321911772_321911775" to="29274703_321911775_1376841315" />
	<connection from="92826389_1076433625_1076433630" to="92826389_1076433630_1076433625" />
	<connection from="92826389_1076433625_1076433630" to="92826388_1076433630_1076433604" />
	<connection from="92826389_1076433625_1076433630" to="92826387_1076433630_1076433613" />
	<connection from="1174961972_9104576048_10917809123" to="265353476_10917809123_10917809138" />
	<connection from="1174961972_9104576048_10917809123" to="988455371_10917809123_10917809119" />
	<connection from="167479920_1788713139_1788713142" to="92829647_1788713142_1076441783" />
	<connection from="553376699_5318515227_9104576057" to="984789187_9104576057_4262547171" />
	<connection from="92829697_1076441910_1076441864" to="138505547_1076441864_1076441796" />
	<connection from="92829645_1076441895_1076441725" to="92829633_1076441725_1076441895" />
	<connection from="92829645_1076441895_1076441725" to="92829645_1076441725_1076441886" />
	<connection from="92829645_1076441895_1076441725" to="92829645_1076441725_1076441895" />
	<connection from="466711838_1076441726_1076441871" to="171933607_1076441871_4701437159" />
	<connection from="466711838_1076441726_1076441871" to="466711838_1076441871_1076441803" />
	<connection from="92829626_1803268931_1076441759" to="92829626_1076441759_1803268931" />
	<connection from="92829626_1803268931_1076441759" to="92829638_1076441759_1076441727" />
	<connection from="92829626_1803268931_1076441759" to="92829626_1076441759_1076441866" />
	<connection from="118114903_316500997_321912009" to="118114903_321912009_321928556" />
	<connection from="118114903_316500997_321912009" to="118114903_321912009_316500997" />
	<connection from="118114903_316500997_321912009" to="29274720_321912009_321912010" />
	<connection from="541860071_5239241518_5239241517" to="541860072_5239241517_5239244242" />
	<connection from="541860071_5239241518_5239241517" to="541860072_5239241517_5239241519" />
	<connection from="541860071_5239241518_5239241517" to="541860071_5239241517_5239241518" />
	<connection from="92829931_1076443458_1076443442" to="92829927_1076443442_1076443448" />
	<connection from="92829931_1076443458_1076443442" to="92829931_1076443442_1076443458" />
	<connection from="92829931_1076443458_1076443442" to="92829917_1076443442_1076443448" />
	<connection from="29709360_327279740_327279585" to="29709349_327279585_327279549" />
	<connection from="29709360_327279740_327279585" to="29709360_327279585_327279740" />
	<connection from="29709360_327279740_327279585" to="29709349_327279585_327279580" />
	<connection from="92829696_1803285771_1076441774" to="92829696_1076441774_1803285771" />
	<connection from="92829696_1803285771_1076441774" to="92829650_1076441774_1319234373" />
	<connection from="138505548_1076441796_1518721127" to="138505548_1518721127_1076441796" />
	<connection from="138505548_1076441796_1518721127" to="138505544_1518721127_1076441862" />
	<connection from="242076776_2496266425_2496266424" to="242076777_2496266424_1076441844" />
	<connection from="242076776_2496266425_2496266424" to="242076776_2496266424_2496266425" />
	<connection from="242076776_2496266425_2496266424" to="242076781_2496266424_1076441837" />
	<connection from="603001591_327280575_1788713148" to="603001591_1788713148_327280575" />
	<connection from="603001591_327280575_1788713148" to="603001591_1788713148_1788713140" />
	<connection from="541860078_4262548206_5239244237" to="703521019_5239244237_5239244223" />
	<connection from="541860078_4262548206_5239244237" to="541860079_5239244237_5239244225" />
	<connection from="541860078_4262548206_5239244237" to="541860078_5239244237_4262548206" />
	<connection from="541860078_4262548206_5239244237" to="703521018_5239244237_5239244233" />
	<connection from="878983109_8177129180_8177129183" to="878983110_8177129183_1400105116" />
	<connection from="878983109_8177129180_8177129183" to="777893923_8177129183_7259859011" />
	<connection from="92826388_1076433630_1076433604" to="92826385_1076433604_1076433625" />
	<connection from="92826388_1076433630_1076433604" to="92826388_1076433604_1076433630" />
	<connection from="92826388_1076433630_1076433604" to="92826386_1076433604_1076433618" />
	<connection from="1174961981_10917809119_1076441792" to="1174961955_1076441792_1270659854" />
	<connection from="1174961981_10917809119_1076441792" to="1174961973_1076441792_10917809123" />
	<connection from="1174961952_10917809117_10917809119" to="1174961982_10917809119_10917809124" />
	<connection from="1174961952_10917809117_10917809119" to="1174961981_10917809119_1076441792" />
	<connection from="703521018_5239244237_5239244233" to="703521018_5239244233_5239244237" />
	<connection from="703521018_5239244237_5239244233" to="541860079_5239244233_5239244226" />
	<connection from="984789747_2627890467_1076441915" to="984789746_1076441915_1270659854" />
	<connection from="984789747_2627890467_1076441915" to="984789747_1076441915_2627890467" />
	<connection from="414001597_4739165325_4427096200" to="414001597_4427096200_4152003840" />
	<connection from="414001597_4739165325_4427096200" to="445253909_4427096200_4427096206" />
	<connection from="414001597_4739165325_4427096200" to="414001597_4427096200_4739165325" />
	<connection from="935524252_8177214319_8669461481" to="878992793_8669461481_8177214332" />
	<connection from="34194812_1076433412_392167281" to="34190471_392167281_392170296" />
	<connection from="34194812_1076433412_392167281" to="34191231_392167281_392162554" />
	<connection from="34194812_1076433412_392167281" to="34191249_392167281_1124885710" />
	<connection from="34194812_1076433412_392167281" to="34194812_392167281_1076433412" />
	<connection from="92826351_1076433422_1076433370" to="92826352_1076433370_1076433422" />
	<connection from="92826351_1076433422_1076433370" to="92826351_1076433370_1076433422" />
	<connection from="984789747_9104563469_2627890467" to="984789747_2627890467_9104563469" />
	<connection from="984789747_9104563469_2627890467" to="438879849_2627890467_4365279782" />
	<connection from="984789747_9104563469_2627890467" to="984789747_2627890467_1076441915" />
	<connection from="988997115_9136453837_1076440632" to="92829411_1076440632_1076440500" />
	<connection from="92829671_1076441740_1076441722" to="242091721_1076441722_1076441788" />
	<connection from="242076780_2496266425_1076441795" to="92829678_1076441795_1805669510" />
	<connection from="242076780_2496266425_1076441795" to="92829644_1076441795_1076441925" />
	<connection from="29709349_327279585_327279580" to="29709349_327279580_327279585" />
	<connection from="29709349_327279585_327279580" to="29960053_327279580_329890642" />
	<connection from="29709349_327279585_327279580" to="500685036_327279580_329890933" />
	<connection from="1174961982_10917809119_10917809124" to="1174961979_10917809124_10917809125" />
	<connection from="1174961982_10917809119_10917809124" to="1174961978_10917809124_9104576052" />
	<connection from="427007043_4262548189_4262548190" to="427007043_4262548190_4262548189" />
	<connection from="427007043_4262548189_4262548190" to="427007032_4262548190_4262548193" />
	<connection from="703521019_5239244223_5239244239" to="703521019_5239244239_5239244223" />
	<connection from="703521019_5239244223_5239244239" to="703521019_5239244239_5239244241" />
	<connection from="703521019_5239244223_5239244239" to="541860072_5239244239_5239241519" />
	<connection from="703521019_5239244223_5239244237" to="703521019_5239244237_5239244223" />
	<connection from="703521019_5239244223_5239244237" to="541860079_5239244237_5239244225" />
	<connection from="703521019_5239244223_5239244237" to="541860078_5239244237_4262548206" />
	<connection from="703521019_5239244223_5239244237" to="703521018_5239244237_5239244233" />
	<connection from="476644028_1076441686_1285503476" to="1188206035_1285503476_1076441771" />
	<connection from="92829687_1076441809_1076441913" to="92829687_1076441913_1076441695" />
	<connection from="29959621_329888485_329888276" to="29958612_329888276_4563096511" />
	<connection from="29959621_329888485_329888276" to="29959621_329888276_329888485" />
	<connection from="29959621_329888485_329888276" to="29958612_329888276_329882458" />
	<connection from="29959621_329888485_329888276" to="460692776_329888276_4563096511" />
	<connection from="445253909_4427096207_4427096206" to="445253909_4427096206_4427096200" />
	<connection from="445253909_4427096207_4427096206" to="445253910_4427096206_4427096207" />
	<connection from="445253909_4427096207_4427096206" to="445253909_4427096206_4427096207" />
	<connection from="92829929_1076443481_597508700" to="92829929_597508700_1076443481" />
	<connection from="92829929_1076443481_597508700" to="34196091_597508700_597508699" />
	<connection from="92829929_1076443481_597508700" to="92829918_597508700_392172991" />
	<connection from="1233932320_8177214329_8177214328" to="878992800_8177214328_8177214326" />
	<connection from="1233932320_8177214329_8177214328" to="1233932319_8177214328_287484083" />
	<connection from="146418413_327279740_329890642" to="146418413_329890642_11690274876" />
	<connection from="146418413_327279740_329890642" to="146418413_329890642_327279740" />
	<connection from="146418413_327279740_329890642" to="29960053_329890642_327279580" />
	<connection from="146418413_4306882093_327279429" to="29709347_327279429_327279549" />
	<connection from="146418413_4306882093_327279429" to="146418413_327279429_4306882093" />
	<connection from="146418413_4306882093_327279429" to="146418413_327279429_329882458" />
	<connection from="29274703_321911775_1376841315" to="123471220_1376841315_321911775" />
	<connection from="29274703_321911775_1376841315" to="29274703_1376841315_321911775" />
	<connection from="503282838_4306881785_10301314594" to="503282838_10301314594_4306881785" />
	<connection from="503282838_4306881785_10301314594" to="1126567553_10301314594_10301314595" />
	<connection from="503282838_4306881785_10301314594" to="503282838_10301314594_4936219149" />
	<connection from="92826356_1076433360_1076433396" to="92826356_1076433396_1076433360" />
	<connection from="92826356_1076433360_1076433396" to="92826358_1076433396_1076433414" />
	<connection from="92826356_1076433360_1076433396" to="92826358_1076433396_1076433365" />
	<connection from="169399492_1076441837_1805669506" to="169399492_1805669506_1076441837" />
	<connection from="169399492_1076441837_1805669506" to="169399492_1805669506_1805669512" />
	<connection from="92829660_1076441757_1788713139" to="167479920_1788713139_1788713142" />
	<connection from="92829660_1076441757_1788713139" to="92829660_1788713139_1076441757" />
	<connection from="92829660_1076441757_1788713139" to="92829660_1788713139_1076441882" />
	<connection from="553379345_5341802232_8177214336" to="553379345_8177214336_329895305" />
	<connection from="553379345_5341802232_8177214336" to="878992791_8177214336_8177214335" />
	<connection from="553379345_5341802232_8177214336" to="553379345_8177214336_5341802232" />
	<connection from="92829625_1076441788_2496386291" to="92829629_2496386291_1076441748" />
	<connection from="92829625_1076441788_2496386291" to="92829625_2496386291_1076441788" />
	<connection from="431478630_4306882089_4306881785" to="431478631_4306881785_329882421" />
	<connection from="431478630_4306882089_4306881785" to="503282838_4306881785_10301314594" />
	<connection from="603001592_1803268889_1803268861" to="92829659_1803268861_1076441731" />
	<connection from="92826358_1076433396_1076433365" to="92826358_1076433365_1076433396" />
	<connection from="92826358_1076433396_1076433365" to="92826358_1076433365_1076433414" />
	<connection from="92826358_1076433396_1076433365" to="97096245_1076433365_1124885709" />
	<connection from="427007042_4262548196_4262547180" to="427007039_4262547180_4262547181" />
	<connection from="427007042_4262548196_4262547180" to="427007039_4262547180_4262547177" />
	<connection from="427007042_4262548196_4262547180" to="427007042_4262547180_4262548196" />
	<connection from="1093042890_597508713_321928363" to="29276244_321928363_671345561" />
	<connection from="1093042890_597508713_321928363" to="447557531_321928363_316500997" />
	<connection from="1093042890_597508713_321928363" to="1093042890_321928363_597508713" />
	<connection from="427007031_4262548198_4262548204" to="991792709_4262548204_4262548208" />
	<connection from="427007031_4262548198_4262548204" to="438880889_4262548204_4365294587" />
	<connection from="427007031_4262548198_4262548204" to="427007031_4262548204_4262548198" />
	<connection from="703521019_5239244242_5239241518" to="703521019_5239241518_5239244241" />
	<connection from="703521019_5239244242_5239241518" to="703521019_5239241518_5239244242" />
	<connection from="703521019_5239244242_5239241518" to="541860071_5239241518_5239241517" />
	<connection from="92829649_1076441884_1076441683" to="92829637_1076441683_1803285662" />
	<connection from="984789186_5318515228_9104576051" to="1174961980_9104576051_10917809125" />
	<connection from="200084457_1076441810_1076441878" to="200084457_1076441878_1076441810" />
	<connection from="200084457_1076441810_1076441878" to="92829657_1076441878_4365249404" />
	<connection from="92829917_1076443448_1076443442" to="92829927_1076443442_1076443448" />
	<connection from="92829917_1076443448_1076443442" to="92829931_1076443442_1076443458" />
	<connection from="92829917_1076443448_1076443442" to="92829917_1076443442_1076443448" />
	<connection from="92829415_8177214329_9136453837" to="988997115_9136453837_1076440632" />
	<connection from="92829632_1076441835_1076441805" to="92829678_1076441805_1805669510" />
	<connection from="92829632_1076441835_1076441805" to="92829632_1076441805_1076441835" />
	<connection from="92829632_1076441835_1076441805" to="92829667_1076441805_1076441807" />
	<connection from="1174961992_10917809137_1076441626" to="92829618_1076441626_1076441634" />
	<connection from="1174961992_10917809137_1076441626" to="935524251_1076441626_1400105097" />
	<connection from="1174961979_10917809124_10917809125" to="1174961988_10917809125_10917809131" />
	<connection from="1174961979_10917809124_10917809125" to="988455369_10917809125_10917809128" />
	<connection from="29276254_392167050_392173496" to="34196091_392173496_597508699" />
	<connection from="29276254_392167050_392173496" to="29276254_392173496_392167050" />
	<connection from="29276254_392167050_392173496" to="29276254_392173496_671345567" />
	<connection from="92829922_1076443494_392172991" to="92829918_392172991_597508700" />
	<connection from="92829922_1076443494_392172991" to="34190078_392172991_392169272" />
	<connection from="92829922_1076443494_392172991" to="92829918_392172991_597508713" />
	<connection from="92829922_1076443494_392172991" to="92829922_392172991_1076443494" />
	<connection from="92826389_1076433630_1076433625" to="92826389_1076433625_1076433630" />
	<connection from="92826389_1076433630_1076433625" to="92826385_1076433625_1076433604" />
	<connection from="541860079_5239244225_5239244237" to="703521019_5239244237_5239244223" />
	<connection from="541860079_5239244225_5239244237" to="541860079_5239244237_5239244225" />
	<connection from="541860079_5239244225_5239244237" to="541860078_5239244237_4262548206" />
	<connection from="541860079_5239244225_5239244237" to="703521018_5239244237_5239244233" />
	<connection from="92829411_1076440632_1076440500" to="92829411_1076440500_1076440518" />
	<connection from="427007031_4262547177_4262548193" to="427007031_4262548193_4262547177" />
	<connection from="427007031_4262547177_4262548193" to="427007031_4262548193_4262548198" />
	<connection from="427007031_4262547177_4262548193" to="427007032_4262548193_4262548190" />
	<connection from="138505544_1076441862_1518721127" to="138505548_1518721127_1076441796" />
	<connection from="138505544_1076441862_1518721127" to="138505544_1518721127_1076441862" />
	<connection from="92829626_1076441759_1076441866" to="92829686_1076441866_1076441733" />
	<connection from="92829626_1076441759_1076441866" to="92829626_1076441866_1076441759" />
	<connection from="92829637_1803285662_1076441683" to="92829683_1076441683_1076441778" />
	<connection from="92829637_1803285662_1076441683" to="92829637_1076441683_1803285662" />
	<connection from="92829625_2496386291_1076441788" to="92829625_1076441788_2496386291" />
	<connection from="92829625_2496386291_1076441788" to="242091721_1076441788_1076441722" />
	<connection from="92829625_2496386291_1076441788" to="242091721_1076441788_1076441748" />
	<connection from="777893922_1076440495_8177214326" to="878992789_8177214326_8177214324" />
	<connection from="438879849_4365283921_2627890470" to="438879849_2627890470_4365283921" />
	<connection from="438879849_4365283921_2627890470" to="438879849_2627890470_4365279781" />
	<connection from="438879849_4365283921_2627890470" to="257194958_2627890470_3218421219" />
	<connection from="765757496_7151783431_1285490480" to="765757496_1285490480_7151783431" />
	<connection from="765757496_7151783431_1285490480" to="500682236_1285490480_392169272" />
	<connection from="92826357_1076433413_1076433364" to="243715726_1076433364_1076433360" />
	<connection from="92826357_1076433413_1076433364" to="92826357_1076433364_1076433413" />
	<connection from="92826357_1076433413_1076433364" to="243715726_1076433364_1076433411" />
	<connection from="503282838_4936219149_10301314594" to="503282838_10301314594_4306881785" />
	<connection from="503282838_4936219149_10301314594" to="1126567553_10301314594_10301314595" />
	<connection from="503282838_4936219149_10301314594" to="503282838_10301314594_4936219149" />
	<connection from="92826388_1076433604_1076433630" to="92826389_1076433630_1076433625" />
	<connection from="92826388_1076433604_1076433630" to="92826388_1076433630_1076433604" />
	<connection from="92826388_1076433604_1076433630" to="92826387_1076433630_1076433613" />
	<connection from="427007039_4262547180_4262547177" to="427007039_4262547177_4262547180" />
	<connection from="427007039_4262547180_4262547177" to="427007031_4262547177_4262547168" />
	<connection from="427007039_4262547180_4262547177" to="427007031_4262547177_4262548193" />
	<connection from="431458221_329882422_4306882089" to="431478630_4306882089_4306881785" />
	<connection from="431458221_329882422_4306882089" to="431458221_4306882089_329882422" />
	<connection from="431458221_329882422_4306882089" to="431458221_4306882089_329882421" />
	<connection from="29274720_321911990_321911734" to="29274720_321911734_321911977" />
	<connection from="29274720_321911990_321911734" to="29274720_321911734_321911990" />
	<connection from="29274720_321911990_321911734" to="217691633_321911734_321911731" />
	<connection from="92829644_1076441795_1076441925" to="92829644_1076441925_1076441795" />
	<connection from="92829644_1076441795_1076441925" to="242077330_1076441925_1076441835" />
	<connection from="541860078_5239244237_4262548206" to="460693478_4262548206_5341780984" />
	<connection from="541860078_5239244237_4262548206" to="480759976_4262548206_6470196718" />
	<connection from="541860078_5239244237_4262548206" to="541860078_4262548206_5239244237" />
	<connection from="541860078_5239244237_4262548206" to="460693479_4262548206_10253189231" />
	<connection from="29959621_329888485_329888258" to="29958612_329888258_4563096511" />
	<connection from="29959621_329888485_329888258" to="29959621_329888258_329888485" />
	<connection from="29959621_329888485_329888258" to="29958612_329888258_329882422" />
	<connection from="476644006_4152003840_4701437159" to="476644006_4701437159_4152003840" />
	<connection from="476644006_4152003840_4701437159" to="476644023_4701437159_1076441803" />
	<connection from="26250783_287484083_8177129181" to="1174961961_8177129181_10917809136" />
	<connection from="92829626_1076441866_1076441759" to="92829626_1076441759_1803268931" />
	<connection from="92829626_1076441866_1076441759" to="92829638_1076441759_1076441727" />
	<connection from="92829626_1076441866_1076441759" to="92829626_1076441759_1076441866" />
	<connection from="257194958_3218421219_2627890470" to="438879849_2627890470_4365283921" />
	<connection from="257194958_3218421219_2627890470" to="438879849_2627890470_4365279781" />
	<connection from="257194958_3218421219_2627890470" to="257194958_2627890470_3218421219" />
	<connection from="92826351_1076433370_1076433422" to="92826352_1076433422_1076433370" />
	<connection from="92826351_1076433370_1076433422" to="92826351_1076433422_1076433370" />
	<connection from="92826351_1076433370_1076433422" to="92826354_1076433422_1076433411" />
	<connection from="427007039_4262547180_4262547181" to="427007030_4262547181_4262547168" />
	<connection from="427007039_4262547180_4262547181" to="427007039_4262547181_4262547180" />
	<connection from="427007039_4262547180_4262547181" to="427007030_4262547181_4262548196" />