<?xml version="1.0" ?>
<!-- Generated by MOSAIC scenario-convert 18.0 -->
<routes>
	<vType id="default" length="7.5" maxSpeed="50" minGap="2.0" carFollowModel="Krauss" accel="0.80" decel="4.5" sigma="0.5" tau="1"/>
	<route id="route1" edges="164603934_2337738062_1076433626 92826392_1076433626_1076433618 92826386_1076433618_1076433604"/>
</routes>
