<nodes>
	<node id="10253189231" x="668284.10" y="4869282.97" z="0.00" type="priority" />
	<node id="10301314594" x="669843.74" y="4867310.19" z="0.00" type="priority" />
	<node id="10301314595" x="669872.31" y="4867342.21" z="0.00" type="priority" />
	<node id="1076433360" x="670658.51" y="4868478.62" z="0.00" type="priority" />
	<node id="1076433364" x="670791.46" y="4868554.06" z="0.00" type="priority" />
	<node id="1076433365" x="670535.28" y="4868344.60" z="0.00" type="priority" />
	<node id="1076433367" x="670741.82" y="4868438.99" z="0.00" type="priority" />
	<node id="1076433370" x="670996.35" y="4868542.53" z="0.00" type="priority" />
	<node id="1076433396" x="670557.13" y="4868480.08" z="0.00" type="priority" />
	<node id="1076433411" x="670909.26" y="4868596.15" z="0.00" type="priority" />
	<node id="1076433412" x="670689.03" y="4868324.77" z="0.00" type="priority" />
	<node id="1076433413" x="670757.80" y="4868599.65" z="0.00" type="priority" />
	<node id="1076433414" x="670598.43" y="4868364.97" z="0.00" type="priority" />
	<node id="1076433422" x="670937.02" y="4868521.76" z="0.00" type="priority" />
	<node id="1076433604" x="670900.81" y="4867764.28" z="0.00" type="priority" />
	<node id="1076433613" x="671027.49" y="4867896.48" z="0.00" type="priority" />
	<node id="1076433618" x="670810.07" y="4867733.04" z="0.00" type="priority" />
	<node id="1076433625" x="671077.11" y="4867747.72" z="0.00" type="priority" />
	<node id="1076433626" x="670741.54" y="4867705.71" z="0.00" type="priority" />
	<node id="1076433630" x="671055.24" y="4867817.17" z="0.00" type="priority" />
	<node id="1076434178" x="671107.23" y="4868022.65" z="0.00" type="priority" />
	<node id="1076435382" x="671120.53" y="4868484.00" z="0.00" type="priority" />
	<node id="1076440495" x="668864.15" y="4868218.34" z="0.00" type="priority" />
	<node id="1076440500" x="668981.61" y="4868090.57" z="0.00" type="traffic_light" />
	<node id="1076440518" x="668995.80" y="4868083.17" z="0.00" type="priority" />
	<node id="1076440554" x="668544.54" y="4868162.34" z="0.00" type="traffic_light" />
	<node id="1076440589" x="668950.68" y="4868134.21" z="0.00" type="priority" />
	<node id="1076440632" x="668966.89" y="4868103.82" z="0.00" type="traffic_light" />
	<node id="1076440633" x="668984.04" y="4868103.47" z="0.00" type="traffic_light" />
	<node id="1076441626" x="668676.93" y="4868661.58" z="0.00" type="priority" />
	<node id="1076441634" x="668665.59" y="4868657.23" z="0.00" type="priority" />
	<node id="1076441638" x="668669.31" y="4868646.99" z="0.00" type="priority" />
	<node id="1076441683" x="668955.78" y="4868562.80" z="0.00" type="priority" />
	<node id="1076441686" x="669040.63" y="4869107.64" z="0.00" type="priority" />
	<node id="1076441689" x="669189.79" y="4868621.28" z="0.00" type="priority" />
	<node id="1076441695" x="669253.33" y="4868862.60" z="0.00" type="priority" />
	<node id="1076441703" x="669226.81" y="4868878.76" z="0.00" type="priority" />
	<node id="1076441710" x="668719.01" y="4869107.05" z="0.00" type="priority" />
	<node id="1076441722" x="668928.44" y="4868515.97" z="0.00" type="priority" />
	<node id="1076441725" x="669256.10" y="4868956.38" z="0.00" type="priority" />
	<node id="1076441726" x="669064.64" y="4869150.09" z="0.00" type="priority" />
	<node id="1076441727" x="669255.58" y="4868667.61" z="0.00" type="priority" />
	<node id="1076441731" x="669074.21" y="4868864.52" z="0.00" type="priority" />
	<node id="1076441733" x="669266.17" y="4868862.07" z="0.00" type="priority" />
	<node id="1076441740" x="668949.78" y="4868533.80" z="0.00" type="priority" />
	<node id="1076441742" x="669266.92" y="4868889.46" z="0.00" type="priority" />
	<node id="1076441748" x="668834.49" y="4868486.11" z="0.00" type="priority" />
	<node id="1076441749" x="668742.01" y="4868939.60" z="0.00" type="priority" />
	<node id="1076441750" x="669098.11" y="4868819.13" z="0.00" type="priority" />
	<node id="1076441753" x="668893.87" y="4868740.38" z="0.00" type="priority" />
	<node id="1076441757" x="669092.09" y="4868569.74" z="0.00" type="priority" />
	<node id="1076441759" x="669262.43" y="4868795.68" z="0.00" type="priority" />
	<node id="1076441767" x="668973.54" y="4868516.44" z="0.00" type="priority" />
	<node id="1076441771" x="669061.12" y="4869132.08" z="0.00" type="priority" />
	<node id="1076441774" x="668817.38" y="4868730.05" z="0.00" type="priority" />
	<node id="1076441778" x="668955.85" y="4868543.15" z="0.00" type="priority" />
	<node id="1076441780" x="669251.01" y="4868887.76" z="0.00" type="priority" />
	<node id="1076441783" x="669119.37" y="4868496.60" z="0.00" type="priority" />
	<node id="1076441788" x="668891.73" y="4868504.74" z="0.00" type="priority" />
	<node id="1076441792" x="668518.10" y="4869127.65" z="0.00" type="traffic_light" />
	<node id="1076441795" x="668908.16" y="4868926.67" z="0.00" type="priority" />
	<node id="1076441796" x="668978.11" y="4868451.14" z="0.00" type="priority" />
	<node id="1076441798" x="669076.43" y="4868846.99" z="0.00" type="priority" />
	<node id="1076441803" x="669039.37" y="4869160.93" z="0.00" type="priority" />
	<node id="1076441805" x="668804.91" y="4868988.55" z="0.00" type="priority" />
	<node id="1076441806" x="668981.53" y="4868526.35" z="0.00" type="priority" />
	<node id="1076441807" x="668793.53" y="4869094.58" z="0.00" type="priority" />
	<node id="1076441809" x="669247.26" y="4868883.46" z="0.00" type="priority" />
	<node id="1076441810" x="669092.24" y="4869139.31" z="0.00" type="priority" />
	<node id="1076441819" x="669096.65" y="4868872.59" z="0.00" type="priority" />
	<node id="1076441835" x="668970.79" y="4868995.66" z="0.00" type="priority" />
	<node id="1076441837" x="668763.80" y="4868860.72" z="0.00" type="priority" />
	<node id="1076441842" x="669004.64" y="4869151.69" z="0.00" type="priority" />
	<node id="1076441844" x="668893.58" y="4868823.08" z="0.00" type="priority" />
	<node id="1076441845" x="668977.11" y="4868541.43" z="0.00" type="priority" />
	<node id="1076441847" x="668955.51" y="4868516.95" z="0.00" type="priority" />
	<node id="1076441852" x="669029.00" y="4869140.15" z="0.00" type="priority" />
	<node id="1076441862" x="668992.18" y="4868380.89" z="0.00" type="priority" />
	<node id="1076441864" x="668970.06" y="4868497.62" z="0.00" type="priority" />
	<node id="1076441866" x="669260.48" y="4868837.06" z="0.00" type="priority" />
	<node id="1076441871" x="669056.78" y="4869159.89" z="0.00" type="priority" />
	<node id="1076441878" x="669383.81" y="4869108.59" z="0.00" type="priority" />
	<node id="1076441882" x="668999.46" y="4868540.75" z="0.00" type="priority" />
	<node id="1076441884" x="668967.27" y="4868545.91" z="0.00" type="priority" />
	<node id="1076441886" x="669261.64" y="4868907.24" z="0.00" type="priority" />
	<node id="1076441893" x="669083.10" y="4868842.07" z="0.00" type="priority" />
	<node id="1076441895" x="669132.39" y="4869046.57" z="0.00" type="priority" />
	<node id="1076441907" x="669033.62" y="4869156.82" z="0.00" type="priority" />
	<node id="1076441910" x="668961.76" y="4868514.07" z="0.00" type="priority" />
	<node id="1076441913" x="669248.11" y="4868867.11" z="0.00" type="priority" />
	<node id="1076441915" x="668738.21" y="4869192.76" z="0.00" type="priority" />
	<node id="1076441925" x="668976.02" y="4868920.78" z="0.00" type="priority" />
	<node id="1076443441" x="669699.70" y="4869061.90" z="0.00" type="priority" />
	<node id="1076443442" x="669591.29" y="4869252.36" z="0.00" type="priority" />
	<node id="1076443448" x="669722.21" y="4869277.82" z="0.00" type="priority" />
	<node id="1076443458" x="669578.97" y="4869170.29" z="0.00" type="priority" />
	<node id="1076443465" x="669764.32" y="4869155.72" z="0.00" type="priority" />
	<node id="1076443481" x="669789.05" y="4869071.53" z="0.00" type="priority" />
	<node id="1076443493" x="669591.85" y="4868840.61" z="0.00" type="priority" />
	<node id="1076443494" x="670106.84" y="4869226.97" z="0.00" type="priority" />
	<node id="10917809114" x="668300.11" y="4869719.02" z="0.00" type="priority" />
	<node id="10917809117" x="668462.20" y="4869245.00" z="0.00" type="priority" />
	<node id="10917809119" x="668506.86" y="4869137.01" z="0.00" type="priority" />
	<node id="10917809123" x="668514.08" y="4869139.57" z="0.00" type="traffic_light" />
	<node id="10917809124" x="668498.31" y="4869133.98" z="0.00" type="traffic_light" />
	<node id="10917809125" x="668502.27" y="4869122.16" z="0.00" type="traffic_light" />
	<node id="10917809126" x="668540.57" y="4869060.94" z="0.00" type="priority" />
	<node id="10917809128" x="668509.58" y="4869124.70" z="0.00" type="priority" />
	<node id="10917809131" x="668584.59" y="4868883.93" z="0.00" type="priority" />
	<node id="10917809133" x="668616.14" y="4868822.04" z="0.00" type="priority" />
	<node id="10917809134" x="668607.02" y="4868818.99" z="0.00" type="priority" />
	<node id="10917809135" x="668610.73" y="4868808.28" z="0.00" type="priority" />
	<node id="10917809136" x="668746.84" y="4868467.68" z="0.00" type="priority" />
	<node id="10917809137" x="668680.80" y="4868651.56" z="0.00" type="priority" />
	<node id="10917809138" x="668292.42" y="4869784.81" z="0.00" type="priority" />
	<node id="10917809143" x="668572.48" y="4868966.67" z="0.00" type="priority" />
	<node id="10917809145" x="668718.32" y="4868548.04" z="0.00" type="priority" />
	<node id="1124885709" x="670639.81" y="4868248.36" z="0.00" type="priority" />
	<node id="1124885710" x="670661.09" y="4868211.23" z="0.00" type="priority" />
	<node id="11690274873" x="669132.17" y="4867958.86" z="0.00" type="priority" />
	<node id="11690274876" x="669242.05" y="4867865.15" z="0.00" type="priority" />
	<node id="1270659854" x="668558.32" y="4869149.33" z="0.00" type="priority" />
	<node id="1285490480" x="670266.25" y="4868957.62" z="0.00" type="priority" />
	<node id="1285503476" x="669054.31" y="4869127.14" z="0.00" type="priority" />
	<node id="1319234373" x="668757.57" y="4868668.82" z="0.00" type="priority" />
	<node id="1376841315" x="670648.99" y="4867862.34" z="0.00" type="priority" />
	<node id="1376850538" x="670406.50" y="4868569.99" z="0.00" type="priority" />
	<node id="1376850551" x="670521.70" y="4868244.67" z="0.00" type="priority" />
	<node id="1376858194" x="670458.51" y="4868431.66" z="0.00" type="priority" />
	<node id="1400085332" x="669054.88" y="4868307.02" z="0.00" type="priority" />
	<node id="1400105097" x="668645.27" y="4868760.53" z="0.00" type="priority" />
	<node id="1400105116" x="668819.86" y="4868255.83" z="0.00" type="traffic_light" />
	<node id="1400105123" x="668698.79" y="4868603.06" z="0.00" type="priority" />
	<node id="1518721127" x="668863.82" y="4868372.47" z="0.00" type="priority" />
	<node id="1788713139" x="669083.55" y="4868566.94" z="0.00" type="priority" />
	<node id="1788713140" x="669296.04" y="4868398.25" z="0.00" type="traffic_light" />
	<node id="1788713142" x="669110.60" y="4868494.02" z="0.00" type="priority" />
	<node id="1788713148" x="669285.22" y="4868394.49" z="0.00" type="traffic_light" />
	<node id="1788713150" x="669272.68" y="4868454.06" z="0.00" type="priority" />
	<node id="1789086077" x="668622.04" y="4868824.00" z="0.00" type="priority" />
	<node id="1798577309" x="670653.26" y="4868426.23" z="0.00" type="priority" />
	<node id="1803231740" x="669270.49" y="4868887.05" z="0.00" type="priority" />
	<node id="1803268861" x="669077.41" y="4868869.32" z="0.00" type="priority" />
	<node id="1803268874" x="669105.95" y="4868853.38" z="0.00" type="priority" />
	<node id="1803268889" x="669093.47" y="4868873.72" z="0.00" type="priority" />
	<node id="1803268926" x="669034.84" y="4869130.29" z="0.00" type="priority" />
	<node id="1803268931" x="669249.88" y="4868675.93" z="0.00" type="priority" />
	<node id="1803268962" x="669079.62" y="4868897.35" z="0.00" type="priority" />
	<node id="1803268973" x="669184.22" y="4868628.65" z="0.00" type="priority" />
	<node id="1803285662" x="668896.98" y="4868731.44" z="0.00" type="priority" />
	<node id="1803285771" x="668819.16" y="4868721.11" z="0.00" type="priority" />
	<node id="1803287836" x="669549.78" y="4868481.76" z="0.00" type="priority" />
	<node id="1803287837" x="669510.25" y="4868468.78" z="0.00" type="priority" />
	<node id="1805669459" x="668751.79" y="4868910.87" z="0.00" type="priority" />
	<node id="1805669506" x="668754.10" y="4868859.94" z="0.00" type="priority" />
	<node id="1805669510" x="668898.66" y="4868927.50" z="0.00" type="priority" />
	<node id="1805669512" x="668682.15" y="4868839.86" z="0.00" type="priority" />
	<node id="1805669514" x="668625.80" y="4868813.09" z="0.00" type="priority" />
	<node id="2156415916" x="669031.03" y="4868314.12" z="0.00" type="priority" />
	<node id="2270006946" x="670031.79" y="4868598.73" z="0.00" type="priority" />
	<node id="2281049612" x="669151.65" y="4868598.94" z="0.00" type="priority" />
	<node id="2337738062" x="670928.01" y="4867181.58" z="0.00" type="traffic_light" />
	<node id="2496243985" x="669101.38" y="4868869.21" z="0.00" type="priority" />
	<node id="2496243988" x="669132.88" y="4868870.05" z="0.00" type="priority" />
	<node id="2496266424" x="668891.60" y="4868850.07" z="0.00" type="priority" />
	<node id="2496266425" x="668900.67" y="4868849.01" z="0.00" type="priority" />
	<node id="2496386291" x="668788.80" y="4868584.28" z="0.00" type="priority" />
	<node id="2627890467" x="668756.29" y="4869190.72" z="0.00" type="priority" />
	<node id="2627890470" x="668766.87" y="4869410.55" z="0.00" type="priority" />
	<node id="2627891935" x="668694.70" y="4869279.67" z="0.00" type="priority" />
	<node id="287484080" x="667800.45" y="4867907.59" z="0.00" type="priority" />
	<node id="287484081" x="668168.39" y="4868031.98" z="0.00" type="priority" />
	<node id="287484083" x="668832.26" y="4868260.19" z="0.00" type="traffic_light" />
	<node id="2959345570" x="669101.76" y="4868846.81" z="0.00" type="priority" />
	<node id="309716425" x="669118.79" y="4867970.47" z="0.00" type="traffic_light" />
	<node id="309716487" x="669128.42" y="4867962.13" z="0.00" type="traffic_light" />
	<node id="316500997" x="670369.84" y="4868761.66" z="0.00" type="traffic_light" />
	<node id="316502311" x="671149.65" y="4869025.12" z="0.00" type="priority" />
	<node id="3218421219" x="668993.96" y="4869384.04" z="0.00" type="priority" />
	<node id="321874320" x="670681.66" y="4867877.86" z="0.00" type="traffic_light" />
	<node id="321911731" x="670450.95" y="4868111.69" z="0.00" type="priority" />
	<node id="321911734" x="670311.82" y="4868047.56" z="0.00" type="priority" />
	<node id="321911772" x="670465.58" y="4868126.16" z="0.00" type="priority" />
	<node id="321911775" x="670499.18" y="4868061.45" z="0.00" type="priority" />
	<node id="321911977" x="670235.32" y="4868357.78" z="0.00" type="priority" />
	<node id="321911990" x="670140.13" y="4868282.33" z="0.00" type="priority" />
	<node id="321912009" x="670099.95" y="4868667.48" z="0.00" type="priority" />
	<node id="321912010" x="670176.32" y="4868448.94" z="0.00" type="priority" />
	<node id="321912049" x="670184.56" y="4868656.52" z="0.00" type="priority" />
	<node id="321912076" x="670209.09" y="4868599.58" z="0.00" type="priority" />
	<node id="321928362" x="669662.89" y="4868644.69" z="0.00" type="priority" />
	<node id="321928363" x="670340.36" y="4868874.96" z="0.00" type="priority" />
	<node id="321928472" x="669626.20" y="4868748.41" z="0.00" type="priority" />
	<node id="321928540" x="669673.71" y="4868522.06" z="0.00" type="priority" />
	<node id="321928556" x="669978.30" y="4868625.99" z="0.00" type="priority" />
	<node id="321928581" x="669640.30" y="4870811.71" z="0.00" type="priority" />
	<node id="321928587" x="670186.43" y="4869315.29" z="0.00" type="priority" />
	<node id="322085656" x="670997.14" y="4867983.50" z="0.00" type="priority" />
	<node id="3245614610" x="668726.74" y="4869459.52" z="0.00" type="priority" />
	<node id="3245614624" x="668877.56" y="4869669.66" z="0.00" type="priority" />
	<node id="327279427" x="669669.37" y="4867805.34" z="0.00" type="priority" />
	<node id="327279429" x="669488.15" y="4867639.90" z="0.00" type="priority" />
	<node id="327279549" x="669589.97" y="4867733.21" z="0.00" type="priority" />
	<node id="327279580" x="669433.15" y="4867930.96" z="0.00" type="priority" />
	<node id="327279585" x="669464.39" y="4867848.35" z="0.00" type="priority" />
	<node id="327279740" x="669360.19" y="4867757.90" z="0.00" type="priority" />
	<node id="327280575" x="669049.97" y="4868320.09" z="0.00" type="priority" />
	<node id="327281016" x="669067.38" y="4868265.25" z="0.00" type="priority" />
	<node id="327281680" x="669236.37" y="4868114.63" z="0.00" type="priority" />
	<node id="327281684" x="669251.42" y="4868022.95" z="0.00" type="priority" />
	<node id="329880950" x="669799.89" y="4867597.48" z="0.00" type="priority" />
	<node id="329882421" x="669661.20" y="4867486.53" z="0.00" type="traffic_light" />
	<node id="329882422" x="669620.90" y="4867437.65" z="0.00" type="priority" />
	<node id="329882458" x="669413.01" y="4867710.34" z="0.00" type="priority" />
	<node id="329888258" x="669169.90" y="4867466.13" z="0.00" type="priority" />
	<node id="329888276" x="669309.76" y="4867601.03" z="0.00" type="priority" />
	<node id="329888485" x="669100.45" y="4867560.19" z="0.00" type="priority" />
	<node id="329888486" x="669160.28" y="4867593.95" z="0.00" type="priority" />
	<node id="329890642" x="669252.15" y="4867856.54" z="0.00" type="priority" />
	<node id="329890933" x="669349.04" y="4868069.51" z="0.00" type="priority" />
	<node id="329895305" x="668040.09" y="4867988.49" z="0.00" type="priority" />
	<node id="3809293946" x="668670.30" y="4869421.97" z="0.00" type="priority" />
	<node id="3809296267" x="668700.37" y="4869340.41" z="0.00" type="priority" />
	<node id="3809296269" x="668599.76" y="4869304.48" z="0.00" type="priority" />
	<node id="3809296270" x="668650.38" y="4869459.43" z="0.00" type="priority" />
	<node id="3815574229" x="670491.60" y="4868398.70" z="0.00" type="priority" />
	<node id="3842071961" x="669048.93" y="4868849.34" z="0.00" type="priority" />
	<node id="392162554" x="670799.99" y="4868011.65" z="0.00" type="priority" />
	<node id="392163204" x="668684.41" y="4868209.38" z="0.00" type="priority" />
	<node id="392164946" x="670933.30" y="4868154.18" z="0.00" type="priority" />
	<node id="392167050" x="670126.24" y="4868907.70" z="0.00" type="priority" />
	<node id="392167281" x="670719.70" y="4868239.13" z="0.00" type="priority" />
	<node id="392169129" x="670574.89" y="4868175.20" z="0.00" type="traffic_light" />
	<node id="392169272" x="670206.07" y="4868935.72" z="0.00" type="priority" />
	<node id="392170296" x="670802.49" y="4868269.70" z="0.00" type="priority" />
	<node id="392172991" x="670120.09" y="4869189.11" z="0.00" type="priority" />
	<node id="392173496" x="670046.64" y="4868879.48" z="0.00" type="priority" />
	<node id="4056588756" x="670749.33" y="4867900.63" z="0.00" type="priority" />
	<node id="4152003817" x="669332.41" y="4869146.43" z="0.00" type="priority" />
	<node id="4152003820" x="669289.06" y="4869312.58" z="0.00" type="priority" />
	<node id="4152003840" x="669068.35" y="4869370.94" z="0.00" type="priority" />
	<node id="4262547151" x="667957.29" y="4868936.28" z="0.00" type="priority" />
	<node id="4262547153" x="667926.88" y="4868944.74" z="0.00" type="priority" />
	<node id="4262547154" x="667984.88" y="4868942.07" z="0.00" type="priority" />
	<node id="4262547159" x="667954.44" y="4868954.68" z="0.00" type="priority" />
	<node id="4262547160" x="667979.82" y="4868960.25" z="0.00" type="priority" />
	<node id="4262547162" x="667959.53" y="4868960.80" z="0.00" type="priority" />
	<node id="4262547163" x="667974.84" y="4868963.07" z="0.00" type="priority" />
	<node id="4262547167" x="667960.20" y="4868993.44" z="0.00" type="priority" />
	<node id="4262547168" x="667956.18" y="4869018.22" z="0.00" type="priority" />
	<node id="4262547171" x="668320.13" y="4869078.13" z="0.00" type="priority" />
	<node id="4262547177" x="667942.26" y="4869097.58" z="0.00" type="priority" />
	<node id="4262547180" x="668037.76" y="4869120.64" z="0.00" type="priority" />
	<node id="4262547181" x="668127.88" y="4869151.35" z="0.00" type="priority" />
	<node id="4262548189" x="667847.10" y="4869181.42" z="0.00" type="priority" />
	<node id="4262548190" x="667865.21" y="4869183.86" z="0.00" type="priority" />
	<node id="4262548193" x="667924.85" y="4869196.85" z="0.00" type="priority" />
	<node id="4262548196" x="668079.36" y="4869230.37" z="0.00" type="priority" />
	<node id="4262548198" x="667910.66" y="4869275.31" z="0.00" type="priority" />
	<node id="4262548204" x="667887.53" y="4869347.83" z="0.00" type="priority" />
	<node id="4262548206" x="668286.07" y="4869352.98" z="0.00" type="priority" />
	<node id="4262548208" x="668055.70" y="4869383.78" z="0.00" type="priority" />
	<node id="4306554969" x="669695.12" y="4867521.12" z="0.00" type="priority" />
	<node id="4306881785" x="669687.26" y="4867456.87" z="0.00" type="priority" />
	<node id="4306882089" x="669654.43" y="4867478.08" z="0.00" type="traffic_light" />
	<node id="4306882093" x="669629.50" y="4867512.58" z="0.00" type="priority" />
	<node id="4337661823" x="668624.01" y="4869500.96" z="0.00" type="priority" />
	<node id="4337665885" x="668523.71" y="4869648.81" z="0.00" type="priority" />
	<node id="4362138343" x="668191.79" y="4868040.19" z="0.00" type="priority" />
	<node id="4362138344" x="668243.47" y="4868058.29" z="0.00" type="priority" />
	<node id="4365249404" x="669514.99" y="4869088.77" z="0.00" type="priority" />
	<node id="4365249405" x="669563.61" y="4869081.15" z="0.00" type="priority" />
	<node id="4365279781" x="668778.45" y="4869347.70" z="0.00" type="priority" />
	<node id="4365279782" x="668768.93" y="4869268.93" z="0.00" type="priority" />
	<node id="4365283921" x="668744.19" y="4869453.30" z="0.00" type="priority" />
	<node id="4365294587" x="667733.84" y="4869767.61" z="0.00" type="priority" />
	<node id="4427096200" x="669153.63" y="4869591.80" z="0.00" type="priority" />
	<node id="4427096206" x="669233.41" y="4869568.35" z="0.00" type="priority" />
	<node id="4427096207" x="669220.15" y="4869393.81" z="0.00" type="priority" />
	<node id="4563096511" x="669260.65" y="4867552.70" z="0.00" type="priority" />
	<node id="4572112231" x="668699.91" y="4866096.45" z="0.00" type="traffic_light" />
	<node id="4701437159" x="669050.64" y="4869181.41" z="0.00" type="priority" />
	<node id="4739165236" x="669276.85" y="4870131.82" z="0.00" type="priority" />
	<node id="4739165325" x="669146.68" y="4869814.61" z="0.00" type="priority" />
	<node id="4936219149" x="669887.29" y="4867270.22" z="0.00" type="priority" />
	<node id="5239241517" x="668435.28" y="4869203.50" z="0.00" type="priority" />
	<node id="5239241518" x="668329.66" y="4869167.53" z="0.00" type="priority" />
	<node id="5239241519" x="668402.82" y="4869250.97" z="0.00" type="priority" />
	<node id="5239244223" x="668321.02" y="4869276.50" z="0.00" type="priority" />
	<node id="5239244224" x="668283.38" y="4869191.20" z="0.00" type="priority" />
	<node id="5239244225" x="668326.38" y="4869383.03" z="0.00" type="priority" />
	<node id="5239244226" x="668370.39" y="4869397.26" z="0.00" type="priority" />
	<node id="5239244233" x="668384.00" y="4869357.86" z="0.00" type="priority" />
	<node id="5239244237" x="668325.47" y="4869347.79" z="0.00" type="priority" />
	<node id="5239244239" x="668318.35" y="4869221.43" z="0.00" type="priority" />
	<node id="5239244241" x="668319.87" y="4869195.72" z="0.00" type="priority" />
	<node id="5239244242" x="668344.60" y="4869120.58" z="0.00" type="priority" />
	<node id="5318515226" x="668325.16" y="4869065.81" z="0.00" type="priority" />
	<node id="5318515227" x="668458.09" y="4869120.69" z="0.00" type="priority" />
	<node id="5318515228" x="668459.47" y="4869108.49" z="0.00" type="priority" />
	<node id="5341780969" x="668236.69" y="4869400.89" z="0.00" type="priority" />
	<node id="5341780970" x="668214.59" y="4869477.15" z="0.00" type="priority" />
	<node id="5341780979" x="668175.80" y="4869577.24" z="0.00" type="priority" />
	<node id="5341780983" x="668178.76" y="4869401.14" z="0.00" type="priority" />
	<node id="5341780984" x="668173.30" y="4869369.77" z="0.00" type="priority" />
	<node id="5341802232" x="668076.75" y="4867889.25" z="0.00" type="priority" />
	<node id="559270061" x="670827.99" y="4867928.24" z="0.00" type="priority" />
	<node id="597508699" x="669991.33" y="4869038.18" z="0.00" type="priority" />
	<node id="597508700" x="669959.66" y="4869130.05" z="0.00" type="priority" />
	<node id="597508713" x="670217.35" y="4869225.25" z="0.00" type="priority" />
	<node id="6470196718" x="668116.54" y="4869851.35" z="0.00" type="priority" />
	<node id="6606861139" x="668241.06" y="4869381.47" z="0.00" type="priority" />
	<node id="671345561" x="669938.84" y="4868738.62" z="0.00" type="priority" />
	<node id="671345567" x="669906.72" y="4868843.26" z="0.00" type="priority" />
	<node id="671345660" x="671270.82" y="4868048.53" z="0.00" type="priority" />
	<node id="7151783390" x="670191.13" y="4868655.02" z="0.00" type="priority" />
	<node id="7151783416" x="670314.48" y="4868712.34" z="0.00" type="priority" />
	<node id="7151783417" x="670314.54" y="4868696.04" z="0.00" type="priority" />
	<node id="7151783431" x="670283.71" y="4868954.88" z="0.00" type="priority" />
	<node id="7259859011" x="668793.83" y="4868247.16" z="0.00" type="priority" />
	<node id="7610358680" x="668458.05" y="4868132.23" z="0.00" type="priority" />
	<node id="7857383493" x="670128.17" y="4868325.17" z="0.00" type="priority" />
	<node id="7857441206" x="669581.59" y="4869029.95" z="0.00" type="priority" />
	<node id="7857708738" x="671120.61" y="4868167.28" z="0.00" type="priority" />
	<node id="8177129180" x="668756.98" y="4868402.81" z="0.00" type="priority" />
	<node id="8177129181" x="668750.19" y="4868458.01" z="0.00" type="priority" />
	<node id="8177129183" x="668796.77" y="4868295.68" z="0.00" type="priority" />
	<node id="8177129185" x="668730.83" y="4868470.69" z="0.00" type="priority" />
	<node id="8177214319" x="668428.18" y="4868109.12" z="0.00" type="priority" />
	<node id="8177214320" x="668672.21" y="4868193.38" z="0.00" type="priority" />
	<node id="8177214324" x="668889.33" y="4868273.04" z="0.00" type="priority" />
	<node id="8177214326" x="668868.27" y="4868258.54" z="0.00" type="priority" />
	<node id="8177214328" x="668838.83" y="4868248.71" z="0.00" type="traffic_light" />
	<node id="8177214329" x="668827.31" y="4868245.08" z="0.00" type="traffic_light" />
	<node id="8177214332" x="668547.98" y="4868151.41" z="0.00" type="traffic_light" />
	<node id="8177214334" x="668246.32" y="4868047.48" z="0.00" type="priority" />
	<node id="8177214335" x="668198.06" y="4868031.24" z="0.00" type="priority" />
	<node id="8177214336" x="668043.81" y="4867978.56" z="0.00" type="priority" />
	<node id="8177214338" x="667910.87" y="4867943.16" z="0.00" type="priority" />
	<node id="8669461480" x="668588.32" y="4868919.91" z="0.00" type="priority" />
	<node id="8669461481" x="668464.36" y="4868122.18" z="0.00" type="priority" />
	<node id="8756731610" x="667796.55" y="4868906.03" z="0.00" type="priority" />
	<node id="9104563469" x="668773.26" y="4869187.38" z="0.00" type="priority" />
	<node id="9104576048" x="668527.30" y="4869144.26" z="0.00" type="priority" />
	<node id="9104576051" x="668494.86" y="4869119.59" z="0.00" type="priority" />
	<node id="9104576052" x="668490.90" y="4869131.36" z="0.00" type="priority" />
	<node id="9104576054" x="668033.41" y="4868972.85" z="0.00" type="priority" />
	<node id="9104576055" x="668035.92" y="4868959.65" z="0.00" type="priority" />
	<node id="9104576056" x="668306.80" y="4869073.63" z="0.00" type="priority" />
	<node id="9104576057" x="668335.33" y="4869082.82" z="0.00" type="priority" />
	<node id="9136453836" x="668964.49" y="4868121.31" z="0.00" type="priority" />
	<node id="9136453837" x="668956.84" y="4868113.04" z="0.00" type="priority" />
	<node id="9163483042" x="667908.47" y="4868942.40" z="0.00" type="priority" />
	<node id="9163483043" x="667643.22" y="4868848.95" z="0.00" type="priority" />
	<node id="9163483074" x="667915.98" y="4868931.49" z="0.00" type="priority" />
</nodes>
