<?xml version="1.0" ?>
<!-- Generated by MOSAIC scenario-convert 18.0 -->
<routes>
	<vType id="default" length="7.5" maxSpeed="50" minGap="2.0" carFollowModel="Krauss" accel="0.80" decel="4.5" sigma="0.5" tau="1"/>
	<route id="EW1" edges="eastApproach westDepart"/>
	<route id="ES0" edges="eastApproach southDepart"/>
	<route id="EN1" edges="eastApproach northDepart"/>
	
	<route id="WE1" edges="westApproach eastDepart"/>
	<route id="WS1" edges="westApproach southDepart"/>
	<route id="WN0" edges="westApproach northDepart"/>
	
	<route id="SN1" edges="southApproach northDepart"/>
	<route id="SE1" edges="southApproach eastDepart"/>
	<route id="SW0" edges="southApproach westDepart"/>
	
	<route id="NS1" edges="northApproach southDepart"/>
	<route id="NW1" edges="northApproach westDepart"/>
	<route id="NE0" edges="northApproach eastDepart"/>
</routes>
