<?xml version="1.0" encoding="UTF-8"?>

<!-- generated on 2024-05-30 12:23:16 by Eclipse SUMO netedit Version 1.20.0
<configuration xmlns:xsi="http://www.w3.org/2001/XMLSchema-instance" xsi:noNamespaceSchemaLocation="http://sumo.dlr.de/xsd/neteditConfiguration.xsd">

    <input>
        <sumo-net-file value="/home/iotlab/CAV/mosaic/scenarios/multiintersection/sumo/multiintersection.net.xml"/>
    </input>

    <output>
        <output-file value="/home/iotlab/CAV/mosaic/scenarios/multiintersection/sumo/multiintersection.net.xml"/>
    </output>

    <processing>
        <geometry.min-radius.fix.railways value="false"/>
        <geometry.max-grade.fix value="false"/>
        <offset.disable-normalization value="true"/>
        <lefthand value="0"/>
    </processing>

    <junctions>
        <no-turnarounds value="true"/>
        <junctions.corner-detail value="5"/>
        <junctions.limit-turn-speed value="5.50"/>
        <rectangular-lane-cut value="0"/>
    </junctions>

    <pedestrian>
        <walkingareas value="0"/>
    </pedestrian>

</configuration>
-->

<net version="1.20" junctionCornerDetail="5" limitTurnSpeed="5.50" xmlns:xsi="http://www.w3.org/2001/XMLSchema-instance" xsi:noNamespaceSchemaLocation="http://sumo.dlr.de/xsd/net_file.xsd">

    <location netOffset="-563984.16,-5933566.87" convBoundary="-305.28,-333.41,479.57,349.79" origBoundary="9.970000,53.550000,9.990000,53.570000" projParameter="+proj=utm +zone=32 +ellps=WGS84 +datum=WGS84 +units=m +no_defs"/>

    <edge id=":J13_0" function="internal">
        <lane id=":J13_0_0" index="0" speed="13.89" length="0.39" shape="37.91,-116.55 38.42,-116.54"/>
        <lane id=":J13_0_1" index="1" speed="13.89" length="0.39" shape="37.88,-113.35 38.27,-113.34"/>
        <lane id=":J13_0_2" index="2" speed="13.89" length="0.39" shape="37.86,-110.15 38.13,-110.14"/>
    </edge>
    <edge id=":J14_0" function="internal">
        <lane id=":J14_0_0" index="0" speed="13.89" length="0.29" shape="41.42,64.52 41.75,64.51"/>
        <lane id=":J14_0_1" index="1" speed="13.89" length="0.29" shape="41.54,67.72 41.83,67.71"/>
        <lane id=":J14_0_2" index="2" speed="13.89" length="0.29" shape="41.65,70.92 41.91,70.91"/>
    </edge>
    <edge id=":J15_0" function="internal">
        <lane id=":J15_0_0" index="0" speed="13.89" length="0.30" shape="-31.65,-27.80 -31.65,-27.48"/>
        <lane id=":J15_0_1" index="1" speed="13.89" length="0.30" shape="-34.85,-27.82 -34.85,-27.53"/>
        <lane id=":J15_0_2" index="2" speed="13.89" length="0.30" shape="-38.05,-27.84 -38.05,-27.57"/>
    </edge>
    <edge id=":J16_0" function="internal">
        <lane id=":J16_0_0" index="0" speed="13.89" length="0.11" shape="195.23,-28.07 195.23,-27.89"/>
        <lane id=":J16_0_1" index="1" speed="13.89" length="0.11" shape="192.04,-28.18 192.03,-28.07"/>
        <lane id=":J16_0_2" index="2" speed="13.89" length="0.11" shape="188.84,-28.29 188.84,-28.26"/>
    </edge>
    <edge id=":J17_0" function="internal">
        <lane id=":J17_0_0" index="0" speed="13.89" length="0.30" shape="120.22,-95.65 119.91,-95.66"/>
        <lane id=":J17_0_1" index="1" speed="13.89" length="0.30" shape="120.32,-98.85 120.02,-98.86"/>
        <lane id=":J17_0_2" index="2" speed="13.89" length="0.30" shape="120.42,-102.05 120.13,-102.06"/>
    </edge>
    <edge id=":J18_0" function="internal">
        <lane id=":J18_0_0" index="0" speed="13.89" length="0.13" shape="175.58,4.36 175.59,4.14"/>
        <lane id=":J18_0_1" index="1" speed="13.89" length="0.13" shape="178.78,4.46 178.79,4.33"/>
        <lane id=":J18_0_2" index="2" speed="13.89" length="0.13" shape="181.98,4.56 181.98,4.52"/>
    </edge>
    <edge id=":J19_0" function="internal">
        <lane id=":J19_0_0" index="0" speed="13.89" length="0.30" shape="81.65,80.46 81.32,80.47"/>
        <lane id=":J19_0_1" index="1" speed="13.89" length="0.30" shape="81.54,77.26 81.24,77.27"/>
        <lane id=":J19_0_2" index="2" speed="13.89" length="0.30" shape="81.43,74.06 81.16,74.07"/>
    </edge>
    <edge id=":J20_0" function="internal">
        <lane id=":J20_0_0" index="0" speed="13.89" length="0.32" shape="-51.21,13.48 -51.21,12.94"/>
        <lane id=":J20_0_1" index="1" speed="13.89" length="0.32" shape="-48.01,13.37 -48.01,13.04"/>
        <lane id=":J20_0_2" index="2" speed="13.89" length="0.32" shape="-44.81,13.26 -44.81,13.15"/>
    </edge>
    <edge id=":MaryRosslandJuction_0" function="internal">
        <lane id=":MaryRosslandJuction_0_0" index="0" speed="6.75" length="9.72" shape="174.20,83.77 173.73,80.97 172.60,79.00 170.81,77.85 168.35,77.53"/>
    </edge>
    <edge id=":MaryRosslandJuction_1" function="internal">
        <lane id=":MaryRosslandJuction_1_0" index="0" speed="6.35" length="9.04" shape="195.67,77.57 193.18,77.84 191.44,78.85 190.44,80.60 190.19,83.09"/>
    </edge>
    <edge id=":MaryRosslandJuction_2" function="internal">
        <lane id=":MaryRosslandJuction_2_0" index="0" speed="13.89" length="27.43" shape="195.67,77.57 168.35,77.53"/>
        <lane id=":MaryRosslandJuction_2_1" index="1" speed="13.89" length="27.43" shape="195.78,74.37 168.24,74.33"/>
    </edge>
    <edge id=":MaryRosslandJuction_4" function="internal">
        <lane id=":MaryRosslandJuction_4_0" index="0" speed="10.50" length="25.12" shape="195.89,71.17 188.94,69.98 184.05,66.97 181.20,62.13 180.41,55.47"/>
    </edge>
    <edge id=":MaryRosslandJuction_5" function="internal">
        <lane id=":MaryRosslandJuction_5_0" index="0" speed="6.58" length="9.43" shape="190.37,55.78 190.62,58.24 191.67,60.02 193.54,61.13 196.22,61.58"/>
    </edge>
    <edge id=":MaryRosslandJuction_6" function="internal">
        <lane id=":MaryRosslandJuction_6_0" index="0" speed="13.89" length="27.45" shape="190.37,55.78 189.93,63.88 189.77,69.43 189.86,74.99 190.19,83.09"/>
        <lane id=":MaryRosslandJuction_6_1" index="1" speed="13.89" length="27.45" shape="187.18,55.68 186.73,63.85 186.57,69.45 186.66,75.05 186.99,83.23"/>
    </edge>
    <edge id=":MaryRosslandJuction_8" function="internal">
        <lane id=":MaryRosslandJuction_8_0" index="0" speed="10.80" length="24.84" shape="183.98,55.58 182.66,62.20 179.58,66.99 174.74,69.97 168.13,71.14"/>
    </edge>
    <edge id=":MaryRosslandJuction_9" function="internal">
        <lane id=":MaryRosslandJuction_9_0" index="0" speed="6.90" length="9.85" shape="167.80,61.42 170.45,60.98 172.37,59.81 173.55,57.90 174.01,55.27"/>
    </edge>
    <edge id=":MaryRosslandJuction_10" function="internal">
        <lane id=":MaryRosslandJuction_10_0" index="0" speed="13.89" length="28.31" shape="167.80,61.42 196.22,61.58"/>
        <lane id=":MaryRosslandJuction_10_1" index="1" speed="13.89" length="28.31" shape="167.91,64.61 196.11,64.77"/>
    </edge>
    <edge id=":MaryRosslandJuction_12" function="internal">
        <lane id=":MaryRosslandJuction_12_0" index="0" speed="10.56" length="25.16" shape="168.02,67.81 174.67,68.65 179.51,71.51 182.56,76.42 183.79,83.36"/>
    </edge>
    <edge id=":MaryTauntonJunction_0" function="internal">
        <lane id=":MaryTauntonJunction_0_0" index="0" speed="7.10" length="10.47" shape="-48.75,89.30 -49.23,86.65 -50.54,84.72 -52.67,83.52 -55.64,83.03"/>
    </edge>
    <edge id=":MaryTauntonJunction_1" function="internal">
        <lane id=":MaryTauntonJunction_1_0" index="0" speed="6.68" length="9.54" shape="-26.66,83.20 -29.38,83.62 -31.29,84.72 -32.42,86.49 -32.76,88.95"/>
    </edge>
    <edge id=":MaryTauntonJunction_2" function="internal">
        <lane id=":MaryTauntonJunction_2_0" index="0" speed="13.89" length="28.86" shape="-26.66,83.20 -55.64,83.03"/>
        <lane id=":MaryTauntonJunction_2_1" index="1" speed="13.89" length="28.86" shape="-26.78,80.00 -55.52,79.84"/>
    </edge>
    <edge id=":MaryTauntonJunction_4" function="internal">
        <lane id=":MaryTauntonJunction_4_0" index="0" speed="10.60" length="25.54" shape="-26.90,76.80 -33.80,75.98 -38.81,73.13 -41.92,68.24 -43.14,61.32"/>
    </edge>
    <edge id=":MaryTauntonJunction_5" function="internal">
        <lane id=":MaryTauntonJunction_5_0" index="0" speed="6.55" length="9.52" shape="-32.85,60.98 -32.53,63.71 -31.50,65.63 -29.74,66.75 -27.26,67.05"/>
    </edge>
    <edge id=":MaryTauntonJunction_6" function="internal">
        <lane id=":MaryTauntonJunction_6_0" index="0" speed="13.89" length="27.95" shape="-32.85,60.98 -32.76,88.95"/>
        <lane id=":MaryTauntonJunction_6_1" index="1" speed="13.89" length="27.95" shape="-36.05,61.08 -35.95,89.02"/>
    </edge>
    <edge id=":MaryTauntonJunction_8" function="internal">
        <lane id=":MaryTauntonJunction_8_0" index="0" speed="10.50" length="25.62" shape="-39.26,61.19 -40.35,68.17 -43.40,73.07 -48.42,75.89 -55.41,76.64"/>
    </edge>
    <edge id=":MaryTauntonJunction_9" function="internal">
        <lane id=":MaryTauntonJunction_9_0" index="0" speed="6.36" length="9.04" shape="-55.06,67.05 -52.57,66.78 -50.82,65.77 -49.81,64.03 -49.54,61.54"/>
    </edge>
    <edge id=":MaryTauntonJunction_10" function="internal">
        <lane id=":MaryTauntonJunction_10_0" index="0" speed="13.89" length="27.92" shape="-55.06,67.05 -27.26,67.05"/>
        <lane id=":MaryTauntonJunction_10_1" index="1" speed="13.89" length="27.92" shape="-55.17,70.24 -27.14,70.24"/>
    </edge>
    <edge id=":MaryTauntonJunction_12" function="internal">
        <lane id=":MaryTauntonJunction_12_0" index="0" speed="10.76" length="25.31" shape="-55.29,73.44 -48.35,74.63 -43.35,77.64 -40.29,82.46 -39.15,89.09"/>
    </edge>
    <edge id=":SimcoeRosslandJunction_0" function="internal">
        <lane id=":SimcoeRosslandJunction_0_0" index="0" speed="6.81" length="9.71" shape="203.53,-93.54 200.90,-93.16 199.00,-92.04 197.82,-90.18 197.35,-87.58"/>
    </edge>
    <edge id=":SimcoeRosslandJunction_1" function="internal">
        <lane id=":SimcoeRosslandJunction_1_0" index="0" speed="13.89" length="27.75" shape="203.53,-93.54 175.73,-93.93"/>
        <lane id=":SimcoeRosslandJunction_1_1" index="1" speed="13.89" length="27.75" shape="203.52,-96.74 175.83,-97.13"/>
    </edge>
    <edge id=":SimcoeRosslandJunction_3" function="internal">
        <lane id=":SimcoeRosslandJunction_3_0" index="0" speed="10.41" length="24.88" shape="203.51,-99.94 196.83,-100.90 192.07,-103.81 189.22,-108.69 188.29,-115.53"/>
    </edge>
    <edge id=":SimcoeRosslandJunction_4" function="internal">
        <lane id=":SimcoeRosslandJunction_4_0" index="0" speed="6.59" length="9.32" shape="197.89,-115.49 198.23,-112.88 199.28,-111.02 201.03,-109.91 203.48,-109.54"/>
    </edge>
    <edge id=":SimcoeRosslandJunction_5" function="internal">
        <lane id=":SimcoeRosslandJunction_5_0" index="0" speed="13.89" length="27.87" shape="197.89,-115.49 197.35,-87.58"/>
        <lane id=":SimcoeRosslandJunction_5_1" index="1" speed="13.89" length="27.87" shape="194.69,-115.50 194.15,-87.69"/>
    </edge>
    <edge id=":SimcoeRosslandJunction_7" function="internal">
        <lane id=":SimcoeRosslandJunction_7_0" index="0" speed="10.35" length="24.95" shape="191.49,-115.51 190.50,-108.69 187.57,-103.89 182.71,-101.10 175.93,-100.33"/>
    </edge>
    <edge id=":SimcoeRosslandJunction_8" function="internal">
        <lane id=":SimcoeRosslandJunction_8_0" index="0" speed="6.41" length="9.02" shape="176.23,-110.14 178.70,-110.38 180.47,-111.36 181.53,-113.08 181.89,-115.55"/>
    </edge>
    <edge id=":SimcoeRosslandJunction_9" function="internal">
        <lane id=":SimcoeRosslandJunction_9_0" index="0" speed="13.89" length="27.31" shape="176.23,-110.14 203.48,-109.54"/>
        <lane id=":SimcoeRosslandJunction_9_1" index="1" speed="13.89" length="27.31" shape="176.13,-106.94 203.49,-106.34"/>
    </edge>
    <edge id=":SimcoeRosslandJunction_11" function="internal">
        <lane id=":SimcoeRosslandJunction_11_0" index="0" speed="10.47" length="24.84" shape="176.03,-103.74 182.76,-102.48 187.49,-99.40 190.22,-94.51 190.95,-87.81"/>
    </edge>
    <edge id=":SimcoeRosslandJunction_12" function="internal">
        <lane id=":SimcoeRosslandJunction_12_0" index="0" speed="6.44" length="9.00" shape="181.04,-88.16 180.83,-90.62 179.88,-92.40 178.17,-93.51 175.73,-93.93"/>
    </edge>
    <edge id=":SimcoeTauntonJunction_0" function="internal">
        <lane id=":SimcoeTauntonJunction_0_0" index="0" speed="6.46" length="9.08" shape="-25.64,-100.66 -28.10,-100.38 -29.85,-99.37 -30.91,-97.61 -31.28,-95.10"/>
    </edge>
    <edge id=":SimcoeTauntonJunction_1" function="internal">
        <lane id=":SimcoeTauntonJunction_1_0" index="0" speed="13.89" length="27.60" shape="-25.64,-100.66 -53.18,-100.68"/>
        <lane id=":SimcoeTauntonJunction_1_1" index="1" speed="13.89" length="27.60" shape="-25.62,-103.86 -53.28,-103.87"/>
    </edge>
    <edge id=":SimcoeTauntonJunction_3" function="internal">
        <lane id=":SimcoeTauntonJunction_3_0" index="0" speed="10.71" length="24.86" shape="-25.59,-107.06 -32.26,-108.23 -37.09,-111.23 -40.09,-116.04 -41.26,-122.68"/>
    </edge>
    <edge id=":SimcoeTauntonJunction_4" function="internal">
        <lane id=":SimcoeTauntonJunction_4_0" index="0" speed="6.82" length="9.69" shape="-31.66,-123.01 -31.21,-120.41 -30.03,-118.54 -28.13,-117.42 -25.52,-117.03"/>
    </edge>
    <edge id=":SimcoeTauntonJunction_5" function="internal">
        <lane id=":SimcoeTauntonJunction_5_0" index="0" speed="13.89" length="27.84" shape="-31.66,-123.01 -31.28,-95.10"/>
        <lane id=":SimcoeTauntonJunction_5_1" index="1" speed="13.89" length="27.84" shape="-34.86,-122.90 -34.48,-95.12"/>
    </edge>
    <edge id=":SimcoeTauntonJunction_7" function="internal">
        <lane id=":SimcoeTauntonJunction_7_0" index="0" speed="10.46" length="12.33" shape="-38.06,-122.79 -38.83,-116.11 -41.64,-111.26"/>
    </edge>
    <edge id=":SimcoeTauntonJunction_16" function="internal">
        <lane id=":SimcoeTauntonJunction_16_0" index="0" speed="10.46" length="12.71" shape="-41.64,-111.26 -46.49,-108.25 -53.39,-107.07"/>
    </edge>
    <edge id=":SimcoeTauntonJunction_8" function="internal">
        <lane id=":SimcoeTauntonJunction_8_0" index="0" speed="6.67" length="9.54" shape="-53.69,-116.67 -50.98,-117.11 -49.07,-118.22 -47.96,-120.01 -47.66,-122.47"/>
    </edge>
    <edge id=":SimcoeTauntonJunction_9" function="internal">
        <lane id=":SimcoeTauntonJunction_9_0" index="0" speed="13.89" length="28.12" shape="-53.69,-116.67 -25.52,-117.03"/>
        <lane id=":SimcoeTauntonJunction_9_1" index="1" speed="13.89" length="28.12" shape="-53.59,-113.47 -25.54,-113.83"/>
    </edge>
    <edge id=":SimcoeTauntonJunction_11" function="internal">
        <lane id=":SimcoeTauntonJunction_11_0" index="0" speed="10.35" length="25.17" shape="-53.49,-110.27 -46.54,-109.52 -41.59,-106.74 -38.63,-101.95 -37.68,-95.14"/>
    </edge>
    <edge id=":SimcoeTauntonJunction_12" function="internal">
        <lane id=":SimcoeTauntonJunction_12_0" index="0" speed="6.36" length="9.00" shape="-47.66,-95.20 -47.94,-97.66 -48.95,-99.40 -50.70,-100.40 -53.18,-100.68"/>
    </edge>
    <edge id=":SimcoeTauntonJunction_13" function="internal">
        <lane id=":SimcoeTauntonJunction_13_0" index="0" speed="13.89" length="27.33" shape="-47.66,-95.20 -47.66,-122.47"/>
        <lane id=":SimcoeTauntonJunction_13_1" index="1" speed="13.89" length="27.33" shape="-44.46,-95.18 -44.46,-122.58"/>
    </edge>
    <edge id=":SimcoeTauntonJunction_15" function="internal">
        <lane id=":SimcoeTauntonJunction_15_0" index="0" speed="10.56" length="12.28" shape="-41.26,-95.16 -40.09,-101.97 -37.26,-106.53"/>
    </edge>
    <edge id=":SimcoeTauntonJunction_17" function="internal">
        <lane id=":SimcoeTauntonJunction_17_0" index="0" speed="10.56" length="12.71" shape="-37.26,-106.53 -37.08,-106.82 -32.24,-109.70 -25.57,-110.63"/>
    </edge>

    <edge id="MaryRosslandEastApproach" from="J5" to="MaryRosslandJuction" priority="-1">
        <lane id="MaryRosslandEastApproach_0" index="0" speed="13.89" length="283.79" shape="479.30,87.28 195.67,77.57"/>
        <lane id="MaryRosslandEastApproach_1" index="1" speed="13.89" length="283.79" shape="479.41,84.08 195.78,74.37"/>
        <lane id="MaryRosslandEastApproach_2" index="2" speed="13.89" length="283.79" shape="479.52,80.88 195.89,71.17"/>
    </edge>
    <edge id="MaryRosslandNorthDepart" from="MaryRosslandJuction" to="J4" priority="-1">
        <lane id="MaryRosslandNorthDepart_0" index="0" speed="13.89" length="255.60" shape="190.19,83.09 200.94,338.46"/>
        <lane id="MaryRosslandNorthDepart_1" index="1" speed="13.89" length="255.60" shape="186.99,83.23 197.75,338.60"/>
        <lane id="MaryRosslandNorthDepart_2" index="2" speed="13.89" length="255.60" shape="183.79,83.36 194.55,338.73"/>
    </edge>
    <edge id="MaryRosslandWestApproach" from="J14" to="MaryRosslandJuction" priority="-1">
        <lane id="MaryRosslandWestApproach_0" index="0" speed="13.89" length="126.12" shape="41.75,64.51 167.80,61.42"/>
        <lane id="MaryRosslandWestApproach_1" index="1" speed="13.89" length="126.12" shape="41.83,67.71 167.91,64.61"/>
        <lane id="MaryRosslandWestApproach_2" index="2" speed="13.89" length="126.12" shape="41.91,70.91 168.02,67.81"/>
    </edge>
    <edge id="MaryTauntonEastApproach" from="J19" to="MaryTauntonJunction" priority="-1">
        <lane id="MaryTauntonEastApproach_0" index="0" speed="13.89" length="108.06" shape="81.32,80.47 -26.66,83.20"/>
        <lane id="MaryTauntonEastApproach_1" index="1" speed="13.89" length="108.06" shape="81.24,77.27 -26.78,80.00"/>
        <lane id="MaryTauntonEastApproach_2" index="2" speed="13.89" length="108.06" shape="81.16,74.07 -26.90,76.80"/>
    </edge>
    <edge id="MaryTauntonNorthDepart" from="MaryTauntonJunction" to="J1" priority="-1">
        <lane id="MaryTauntonNorthDepart_0" index="0" speed="13.89" length="260.73" shape="-32.76,88.95 -27.06,349.62"/>
        <lane id="MaryTauntonNorthDepart_1" index="1" speed="13.89" length="260.73" shape="-35.95,89.02 -30.26,349.69"/>
        <lane id="MaryTauntonNorthDepart_2" index="2" speed="13.89" length="260.73" shape="-39.15,89.09 -33.46,349.76"/>
    </edge>
    <edge id="MaryTauntonSouthDepart" from="MaryTauntonJunction" to="J20" priority="-1">
        <lane id="MaryTauntonSouthDepart_0" index="0" speed="13.89" length="48.09" shape="-49.54,61.54 -51.21,13.48"/>
        <lane id="MaryTauntonSouthDepart_1" index="1" speed="13.89" length="48.09" shape="-46.34,61.43 -48.01,13.37"/>
        <lane id="MaryTauntonSouthDepart_2" index="2" speed="13.89" length="48.09" shape="-43.14,61.32 -44.81,13.26"/>
    </edge>
    <edge id="MaryTauntonWestApproach" from="J7" to="MaryTauntonJunction" priority="-1">
        <lane id="MaryTauntonWestApproach_0" index="0" speed="13.89" length="250.10" shape="-304.99,57.96 -55.06,67.05"/>
        <lane id="MaryTauntonWestApproach_1" index="1" speed="13.89" length="250.10" shape="-305.11,61.15 -55.17,70.24"/>
        <lane id="MaryTauntonWestApproach_2" index="2" speed="13.89" length="250.10" shape="-305.22,64.35 -55.29,73.44"/>
    </edge>
    <edge id="MaryTauntonWestDepart" from="MaryTauntonJunction" to="J7" priority="-1">
        <lane id="MaryTauntonWestDepart_0" index="0" speed="13.89" length="250.10" shape="-55.64,83.03 -305.57,73.94"/>
        <lane id="MaryTauntonWestDepart_1" index="1" speed="13.89" length="250.10" shape="-55.52,79.84 -305.45,70.75"/>
        <lane id="MaryTauntonWestDepart_2" index="2" speed="13.89" length="250.10" shape="-55.41,76.64 -305.34,67.55"/>
    </edge>
    <edge id="RosslandMaryEastDepart" from="MaryRosslandJuction" to="J5" priority="-1">
        <lane id="RosslandMaryEastDepart_0" index="0" speed="13.89" length="283.79" shape="196.22,61.58 479.84,71.28"/>
        <lane id="RosslandMaryEastDepart_1" index="1" speed="13.89" length="283.79" shape="196.11,64.77 479.73,74.48"/>
        <lane id="RosslandMaryEastDepart_2" index="2" speed="13.89" length="283.79" shape="196.00,67.97 479.62,77.68"/>
    </edge>
    <edge id="RosslandMaryNorthApproach" from="J4" to="MaryRosslandJuction" priority="-1">
        <lane id="RosslandMaryNorthApproach_0" index="0" speed="13.89" length="255.60" shape="184.96,339.14 174.20,83.77"/>
        <lane id="RosslandMaryNorthApproach_1" index="1" speed="13.89" length="255.60" shape="188.15,339.00 177.40,83.63"/>
        <lane id="RosslandMaryNorthApproach_2" index="2" speed="13.89" length="255.60" shape="191.35,338.87 180.60,83.50"/>
    </edge>
    <edge id="RosslandMarySouthApproach" from="J16" to="MaryRosslandJuction" priority="-1">
        <lane id="RosslandMarySouthApproach_0" index="0" speed="13.89" length="83.89" shape="195.23,-27.89 190.37,55.78"/>
        <lane id="RosslandMarySouthApproach_1" index="1" speed="13.89" length="83.89" shape="192.03,-28.07 187.18,55.68"/>
        <lane id="RosslandMarySouthApproach_2" index="2" speed="13.89" length="83.89" shape="188.84,-28.26 183.98,55.58"/>
    </edge>
    <edge id="RosslandMarySouthDepart" from="MaryRosslandJuction" to="J18" priority="-1">
        <lane id="RosslandMarySouthDepart_0" index="0" speed="13.89" length="50.93" shape="174.01,55.27 175.58,4.36"/>
        <lane id="RosslandMarySouthDepart_1" index="1" speed="13.89" length="50.93" shape="177.21,55.37 178.78,4.46"/>
        <lane id="RosslandMarySouthDepart_2" index="2" speed="13.89" length="50.93" shape="180.41,55.47 181.98,4.56"/>
    </edge>
    <edge id="RosslandMaryWestDepart" from="MaryRosslandJuction" to="J19" priority="-1">
        <lane id="RosslandMaryWestDepart_0" index="0" speed="13.89" length="86.75" shape="168.35,77.53 81.65,80.46"/>
        <lane id="RosslandMaryWestDepart_1" index="1" speed="13.89" length="86.75" shape="168.24,74.33 81.54,77.26"/>
        <lane id="RosslandMaryWestDepart_2" index="2" speed="13.89" length="86.75" shape="168.13,71.14 81.43,74.06"/>
    </edge>
    <edge id="RosslandSimcoeEastDepart" from="SimcoeRosslandJunction" to="J9" priority="-1">
        <lane id="RosslandSimcoeEastDepart_0" index="0" speed="13.89" length="267.49" shape="203.48,-109.54 470.97,-110.33"/>
        <lane id="RosslandSimcoeEastDepart_1" index="1" speed="13.89" length="267.49" shape="203.49,-106.34 470.98,-107.13"/>
        <lane id="RosslandSimcoeEastDepart_2" index="2" speed="13.89" length="267.49" shape="203.50,-103.14 470.99,-103.93"/>
    </edge>
    <edge id="RosslandSimcoeNorthApproach" from="J18" to="SimcoeRosslandJunction" priority="-1">
        <lane id="RosslandSimcoeNorthApproach_0" index="0" speed="13.89" length="92.53" shape="175.59,4.14 181.04,-88.16"/>
        <lane id="RosslandSimcoeNorthApproach_1" index="1" speed="13.89" length="92.53" shape="178.79,4.33 184.24,-88.05"/>
        <lane id="RosslandSimcoeNorthApproach_2" index="2" speed="13.89" length="92.53" shape="181.98,4.52 187.44,-87.93"/>
    </edge>
    <edge id="RosslandSimcoeSouthApproach" from="J12" to="SimcoeRosslandJunction" priority="-1">
        <lane id="RosslandSimcoeSouthApproach_0" index="0" speed="13.89" length="217.02" shape="198.68,-332.51 197.89,-115.49"/>
        <lane id="RosslandSimcoeSouthApproach_1" index="1" speed="13.89" length="217.02" shape="195.48,-332.52 194.69,-115.50"/>
        <lane id="RosslandSimcoeSouthApproach_2" index="2" speed="13.89" length="217.02" shape="192.28,-332.53 191.49,-115.51"/>
    </edge>
    <edge id="SimcoeRosslandEastApproach" from="J9" to="SimcoeRosslandJunction" priority="-1">
        <lane id="SimcoeRosslandEastApproach_0" index="0" speed="13.89" length="267.49" shape="471.01,-94.33 203.53,-93.54"/>
        <lane id="SimcoeRosslandEastApproach_1" index="1" speed="13.89" length="267.49" shape="471.00,-97.53 203.52,-96.74"/>
        <lane id="SimcoeRosslandEastApproach_2" index="2" speed="13.89" length="267.49" shape="470.99,-100.73 203.51,-99.94"/>
    </edge>
    <edge id="SimcoeRosslandNorthDepart" from="SimcoeRosslandJunction" to="J16" priority="-1">
        <lane id="SimcoeRosslandNorthDepart_0" index="0" speed="13.89" length="59.55" shape="197.35,-87.58 195.23,-28.07"/>
        <lane id="SimcoeRosslandNorthDepart_1" index="1" speed="13.89" length="59.55" shape="194.15,-87.69 192.04,-28.18"/>
        <lane id="SimcoeRosslandNorthDepart_2" index="2" speed="13.89" length="59.55" shape="190.95,-87.81 188.84,-28.29"/>
    </edge>
    <edge id="SimcoeRosslandSouthDepart" from="SimcoeRosslandJunction" to="J12" priority="-1">
        <lane id="SimcoeRosslandSouthDepart_0" index="0" speed="13.89" length="217.02" shape="181.89,-115.55 182.68,-332.57"/>
        <lane id="SimcoeRosslandSouthDepart_1" index="1" speed="13.89" length="217.02" shape="185.09,-115.54 185.88,-332.56"/>
        <lane id="SimcoeRosslandSouthDepart_2" index="2" speed="13.89" length="217.02" shape="188.29,-115.53 189.08,-332.55"/>
    </edge>
    <edge id="SimcoeRosslandWestApproach" from="J13" to="SimcoeRosslandJunction" priority="-1">
        <lane id="SimcoeRosslandWestApproach_0" index="0" speed="13.89" length="138.00" shape="38.42,-116.54 176.23,-110.14"/>
        <lane id="SimcoeRosslandWestApproach_1" index="1" speed="13.89" length="138.00" shape="38.27,-113.34 176.13,-106.94"/>
        <lane id="SimcoeRosslandWestApproach_2" index="2" speed="13.89" length="138.00" shape="38.13,-110.14 176.03,-103.74"/>
    </edge>
    <edge id="SimcoeRosslandWestDepart" from="SimcoeRosslandJunction" to="J17" priority="-1">
        <lane id="SimcoeRosslandWestDepart_0" index="0" speed="13.89" length="55.53" shape="175.73,-93.93 120.22,-95.65"/>
        <lane id="SimcoeRosslandWestDepart_1" index="1" speed="13.89" length="55.53" shape="175.83,-97.13 120.32,-98.85"/>
        <lane id="SimcoeRosslandWestDepart_2" index="2" speed="13.89" length="55.53" shape="175.93,-100.33 120.42,-102.05"/>
    </edge>
    <edge id="SimcoeTauntonEastApproach" from="J17" to="SimcoeTauntonJunction" priority="-1">
        <lane id="SimcoeTauntonEastApproach_0" index="0" speed="13.89" length="145.73" shape="119.91,-95.66 -25.64,-100.66"/>
        <lane id="SimcoeTauntonEastApproach_1" index="1" speed="13.89" length="145.73" shape="120.02,-98.86 -25.62,-103.86"/>
        <lane id="SimcoeTauntonEastApproach_2" index="2" speed="13.89" length="145.73" shape="120.13,-102.06 -25.59,-107.06"/>
    </edge>
    <edge id="SimcoeTauntonEastDepart" from="SimcoeTauntonJunction" to="J13" priority="-1">
        <lane id="SimcoeTauntonEastDepart_0" index="0" speed="13.89" length="63.43" shape="-25.52,-117.03 37.91,-116.55"/>
        <lane id="SimcoeTauntonEastDepart_1" index="1" speed="13.89" length="63.43" shape="-25.54,-113.83 37.88,-113.35"/>
        <lane id="SimcoeTauntonEastDepart_2" index="2" speed="13.89" length="63.43" shape="-25.57,-110.63 37.86,-110.15"/>
    </edge>
    <edge id="SimcoeTauntonNorthDepart" from="SimcoeTauntonJunction" to="J15" priority="-1">
        <lane id="SimcoeTauntonNorthDepart_0" index="0" speed="13.89" length="67.30" shape="-31.28,-95.10 -31.65,-27.80"/>
        <lane id="SimcoeTauntonNorthDepart_1" index="1" speed="13.89" length="67.30" shape="-34.48,-95.12 -34.85,-27.82"/>
        <lane id="SimcoeTauntonNorthDepart_2" index="2" speed="13.89" length="67.30" shape="-37.68,-95.14 -38.05,-27.84"/>
    </edge>
    <edge id="SimcoeTauntonSouthApproach" from="J15" to="MaryTauntonJunction" priority="-1">
        <lane id="SimcoeTauntonSouthApproach_0" index="0" speed="13.89" length="88.62" shape="-31.65,-27.48 -32.85,60.98"/>
        <lane id="SimcoeTauntonSouthApproach_1" index="1" speed="13.89" length="88.62" shape="-34.85,-27.53 -36.05,61.08"/>
        <lane id="SimcoeTauntonSouthApproach_2" index="2" speed="13.89" length="88.62" shape="-38.05,-27.57 -39.26,61.19"/>
    </edge>
    <edge id="SimcoeTauntonSouthDepart" from="SimcoeTauntonJunction" to="J11" priority="-1">
        <lane id="SimcoeTauntonSouthDepart_0" index="0" speed="13.89" length="210.79" shape="-47.66,-122.47 -54.78,-333.14"/>
        <lane id="SimcoeTauntonSouthDepart_1" index="1" speed="13.89" length="210.79" shape="-44.46,-122.58 -51.58,-333.25"/>
        <lane id="SimcoeTauntonSouthDepart_2" index="2" speed="13.89" length="210.79" shape="-41.26,-122.68 -48.38,-333.36"/>
    </edge>
    <edge id="SimcoeTauntonWestApproach" from="J10" to="SimcoeTauntonJunction" priority="-1">
        <lane id="SimcoeTauntonWestApproach_0" index="0" speed="13.89" length="238.85" shape="-292.42,-108.99 -53.69,-116.67"/>
        <lane id="SimcoeTauntonWestApproach_1" index="1" speed="13.89" length="238.85" shape="-292.31,-105.79 -53.59,-113.47"/>
        <lane id="SimcoeTauntonWestApproach_2" index="2" speed="13.89" length="238.85" shape="-292.21,-102.59 -53.49,-110.27"/>
    </edge>
    <edge id="SimcoeTauntonWestDepart" from="SimcoeTauntonJunction" to="J10" priority="-1">
        <lane id="SimcoeTauntonWestDepart_0" index="0" speed="13.89" length="238.85" shape="-53.18,-100.68 -291.90,-92.99"/>
        <lane id="SimcoeTauntonWestDepart_1" index="1" speed="13.89" length="238.85" shape="-53.28,-103.87 -292.01,-96.19"/>
        <lane id="SimcoeTauntonWestDepart_2" index="2" speed="13.89" length="238.85" shape="-53.39,-107.07 -292.11,-99.39"/>
    </edge>
    <edge id="TauntonMaryEastDepart" from="MaryTauntonJunction" to="J14" priority="-1">
        <lane id="TauntonMaryEastDepart_0" index="0" speed="13.89" length="68.72" shape="-27.26,67.05 41.42,64.52"/>
        <lane id="TauntonMaryEastDepart_1" index="1" speed="13.89" length="68.72" shape="-27.14,70.24 41.54,67.72"/>
        <lane id="TauntonMaryEastDepart_2" index="2" speed="13.89" length="68.72" shape="-27.02,73.44 41.65,70.92"/>
    </edge>
    <edge id="TauntonMaryNorthApproach" from="J1" to="MaryTauntonJunction" priority="-1">
        <lane id="TauntonMaryNorthApproach_0" index="0" speed="13.89" length="260.73" shape="-43.06,349.96 -48.75,89.30"/>
        <lane id="TauntonMaryNorthApproach_1" index="1" speed="13.89" length="260.73" shape="-39.86,349.89 -45.55,89.23"/>
        <lane id="TauntonMaryNorthApproach_2" index="2" speed="13.89" length="260.73" shape="-36.66,349.82 -42.35,89.16"/>