<?xml version="1.0" ?>
<!-- Generated by MOSAIC scenario-convert 18.0 -->
<routes>
	<vType id="default" length="7.5" maxSpeed="50" minGap="2.0" carFollowModel="Krauss" accel="0.80" decel="4.5" sigma="0.5" tau="1"/>
	<route id="STEE" edges="SimcoeTauntonWestApproach RosslandMaryEastDepart"/><!-- Simcoe-Taunton MaryRossland (Extreme ends)-->
	<route id="STER" edges="SimcoeTauntonWestApproach SimcoeTauntonSouthDepart"/><!-- Simcoe-Taunton Simcoe-Taunton (Right-Turn)-->
	<route id="STEL" edges="SimcoeTauntonWestApproach MaryTauntonWestDepart"/><!-- Simcoe-Taunton Mary-Taunton (Left-Turn)-->
	<route id="STES" edges="SimcoeTauntonWestApproach RosslandSimcoeEastDepart"/><!-- Simcoe-Taunton Rossland-Taunton (Straight-Through)-->
	
	
	<route id="TSE" edges="TauntonSimcoeSouthApproach MaryRosslandNorthDepart"/><!-- Simcoe-Taunton MaryRossland (Extreme ends)-->
	<route id="TSR" edges="TauntonSimcoeSouthApproach SimcoeRosslandSouthDepart"/><!-- Simcoe-Taunton Simcoe-Taunton (Right-Turn)-->
	<route id="TSL" edges="TauntonSimcoeSouthApproach SimcoeTauntonWestDepart"/><!-- Simcoe-Taunton Mary-Taunton (Left-Turn)-->
	<route id="TSS" edges="TauntonSimcoeSouthApproach MaryTauntonNorthDepart"/><!-- Simcoe-Taunton Rossland-Taunton (Straight-Through)-->
	
	
	<route id="RSE" edges="RosslandSimcoeSouthApproach MaryTauntonNorthDepart"/><!-- Simcoe-Taunton MaryRossland (Extreme ends)-->
	<route id="RSR" edges="RosslandSimcoeSouthApproach RosslandSimcoeEastDepart"/><!-- Simcoe-Taunton Simcoe-Taunton (Right-Turn)-->
	<route id="RSL" edges="RosslandSimcoeSouthApproach SimcoeTauntonWestDepart"/><!-- Simcoe-Taunton Mary-Taunton (Left-Turn)-->
	<route id="RSS" edges="RosslandSimcoeSouthApproach MaryRosslandNorthDepart"/><!-- Simcoe-Taunton Rossland-Taunton (Straight-Through)-->
	
	<route id="SRE" edges="SimcoeRosslandEastApproach MaryTauntonWestDepart"/><!-- Simcoe-Taunton MaryRossland (Extreme ends)-->
	<route id="SRR" edges="SimcoeRosslandEastApproach RosslandMaryEastDepart"/><!-- Simcoe-Taunton Simcoe-Taunton (Right-Turn)-->
	<route id="SRL" edges="SimcoeRosslandEastApproach SimcoeRosslandSouthDepart"/><!-- Simcoe-Taunton Mary-Taunton (Left-Turn)-->
	<route id="SRS" edges="SimcoeRosslandEastApproach SimcoeTauntonWestDepart"/><!-- Simcoe-Taunton Rossland-Taunton (Straight-Through)-->
	
	<route id="MRE" edges="MaryRosslandEastApproach SimcoeTauntonWestDepart"/><!-- Simcoe-Taunton MaryRossland (Extreme ends)-->
	<route id="MRR" edges="MaryRosslandEastApproach MaryRosslandNorthDepart"/><!-- Simcoe-Taunton Simcoe-Taunton (Right-Turn)-->
	<route id="MRL" edges="MaryRosslandEastApproach RosslandSimcoeEastDepart"/><!-- Simcoe-Taunton Mary-Taunton (Left-Turn)-->
	<route id="MRS" edges="MaryRosslandEastApproach MaryTauntonWestDepart"/><!-- Simcoe-Taunton Rossland-Taunton (Straight-Through)-->
	
	<route id="RME" edges="RosslandMaryNorthApproach SimcoeTauntonWestDepart"/><!-- Simcoe-Taunton MaryRossland (Extreme ends)-->
	<route id="RMR" edges="RosslandMaryNorthApproach MaryTauntonNorthDepart"/><!-- Simcoe-Taunton Simcoe-Taunton (Right-Turn)-->
	<route id="RML" edges="RosslandMaryNorthApproach RosslandMaryEastDepart"/><!-- Simcoe-Taunton Mary-Taunton (Left-Turn)-->
	<route id="RMS" edges="RosslandMaryNorthApproach SimcoeRosslandSouthDepart"/><!-- Simcoe-Taunton Rossland-Taunton (Straight-Through)-->
	
	
	<route id="TME" edges="TauntonMaryNorthApproach SimcoeRosslandSouthDepart"/><!-- Simcoe-Taunton MaryRossland (Extreme ends)-->
	<route id="TMR" edges="TauntonMaryNorthApproach MaryTauntonWestDepart"/><!-- Simcoe-Taunton Simcoe-Taunton (Right-Turn)-->
	<route id="TML" edges="TauntonMaryNorthApproach MaryRosslandNorthDepart"/><!-- Simcoe-Taunton Mary-Taunton (Left-Turn)-->
	<route id="TMS" edges="TauntonMaryNorthApproach SimcoeTauntonSouthDepart"/><!-- Simcoe-Taunton Rossland-Taunton (Straight-Through)-->
	
	
	<route id="MTE" edges="MaryTauntonWestApproach RosslandSimcoeEastDepart"/><!-- Simcoe-Taunton MaryRossland (Extreme ends)-->
	<route id="MTR" edges="MaryTauntonWestApproach SimcoeTauntonWestDepart"/><!-- Simcoe-Taunton Simcoe-Taunton (Right-Turn)-->
	<route id="MTL" edges="MaryTauntonWestApproach MaryTauntonNorthDepart"/><!-- Simcoe-Taunton Mary-Taunton (Left-Turn)-->
	<route id="MTS" edges="MaryTauntonWestApproach SimcoeTauntonSouthDepart"/><!-- Simcoe-Taunton Rossland-Taunton (Straight-Through)-->
	
</routes>
