<?xml version="1.0" encoding="UTF-8"?>

<!-- generated on 2024-09-13 12:56:47 by Eclipse SUMO GUI Version 1.20.0
<configuration xmlns:xsi="http://www.w3.org/2001/XMLSchema-instance" xsi:noNamespaceSchemaLocation="http://sumo.dlr.de/xsd/sumoConfiguration.xsd">

    <input>
        <net-file value="/home/iotlab/CAV/mosaic/scenarios/isolatedintersection/sumo/loopandv2idataintersection.net.xml"/>
        <route-files value="/home/iotlab/CAV/mosaic/scenarios/isolatedintersection/sumo/isolatedintersection.rou.xml"/>
        <additional-files value="/home/iotlab/CAV/mosaic/scenarios/isolatedintersection/sumo/loopdetectors.add.xml"/>
    </input>

    <time>
        <begin value="0"/>
        <end value="18000"/>
        <step-length value="0.1"/>
    </time>

</configuration>
