<configuration>
	<input>
		<net-file value="loopandv2idataintersection.net.xml" />
		<route-files value="isolatedintersection.rou.xml" />
		<additional-files value="loopdetectors.add.xml" />
	</input>
	<time>
		<begin value="0" />
		<end value="18000" />
		<step-length value="0.1"/>
	</time>
</configuration>
